obj01
  PyMOL2.5          3D                             0

299291  0  0  0  0  0  0  0  0999 V2000
 -116.2680   -5.2470   40.7810 N   0  0  0  0  0  0  0  0  0  0  0  0
 -115.5270   -4.0950   41.3210 C   0  0  0  0  0  0  0  0  0  0  0  0
 -115.9740   -3.7570   42.7520 C   0  0  0  0  0  0  0  0  0  0  0  0
 -117.1690   -3.5780   42.9930 O   0  0  0  0  0  0  0  0  0  0  0  0
 -115.8030   -2.9540   40.3190 C   0  0  0  0  0  0  0  0  0  0  0  0
 -116.5910   -3.5680   39.1690 C   0  0  0  0  0  0  0  0  0  0  0  0
 -117.2320   -4.8000   39.7870 C   0  0  0  0  0  0  0  0  0  0  0  0
 -114.4590   -4.3220   41.3050 H   0  0  0  0  0  0  0  0  0  0  0  0
 -116.3750   -2.1560   40.7800 H   0  0  0  0  0  0  0  0  0  0  0  0
 -114.8820   -2.4960   39.9620 H   0  0  0  0  0  0  0  0  0  0  0  0
 -117.3120   -2.8840   38.7200 H   0  0  0  0  0  0  0  0  0  0  0  0
 -115.9000   -3.8820   38.3860 H   0  0  0  0  0  0  0  0  0  0  0  0
 -118.1640   -4.5420   40.2930 H   0  0  0  0  0  0  0  0  0  0  0  0
 -117.4500   -5.5480   39.0380 H   0  0  0  0  0  0  0  0  0  0  0  0
 -114.9990   -3.6970   43.6690 N   0  0  0  0  0  0  0  0  0  0  0  0
 -115.2120   -3.3480   45.0690 C   0  0  0  0  0  0  0  0  0  0  0  0
 -115.5380   -4.5730   45.9360 C   0  0  0  0  0  0  0  0  0  0  0  0
 -116.0840   -4.3910   47.0210 O   0  0  0  0  0  0  0  0  0  0  0  0
 -114.0450   -3.8800   43.3870 H   0  0  0  0  0  0  0  0  0  0  0  0
 -114.3090   -2.8770   45.4570 H   0  0  0  0  0  0  0  0  0  0  0  0
 -116.0100   -2.6120   45.1540 H   0  0  0  0  0  0  0  0  0  0  0  0
 -115.2320   -5.8010   45.4820 N   0  0  0  0  0  0  0  0  0  0  0  0
 -115.4900   -7.0560   46.2000 C   0  0  0  0  0  0  0  0  0  0  0  0
 -114.3420   -7.5020   47.1350 C   0  0  0  0  0  0  0  0  0  0  0  0
 -114.5110   -8.5090   47.8250 O   0  0  0  0  0  0  0  0  0  0  0  0
 -115.8030   -8.2160   45.2170 C   0  0  0  0  0  0  0  0  0  0  0  0
 -117.0520   -7.9550   44.3610 C   0  0  0  0  0  0  0  0  0  0  0  0
 -114.7010   -8.5080   44.3750 O   0  0  0  0  0  0  0  0  0  0  0  0
 -114.7450   -5.8890   44.6000 H   0  0  0  0  0  0  0  0  0  0  0  0
 -116.3550   -6.9170   46.8430 H   0  0  0  0  0  0  0  0  0  0  0  0
 -116.0020   -9.1270   45.7830 H   0  0  0  0  0  0  0  0  0  0  0  0
 -114.6920   -7.8680   43.6570 H   0  0  0  0  0  0  0  0  0  0  0  0
 -117.1530   -8.7050   43.5810 H   0  0  0  0  0  0  0  0  0  0  0  0
 -117.9540   -8.0050   44.9610 H   0  0  0  0  0  0  0  0  0  0  0  0
 -117.0430   -6.9730   43.8920 H   0  0  0  0  0  0  0  0  0  0  0  0
 -113.2330   -6.7460   47.1940 N   0  0  0  0  0  0  0  0  0  0  0  0
 -112.1370   -7.0030   48.1250 C   0  0  0  0  0  0  0  0  0  0  0  0
 -110.9670   -7.7360   47.4610 C   0  0  0  0  0  0  0  0  0  0  0  0
 -110.2540   -8.4520   48.1580 O   0  0  0  0  0  0  0  0  0  0  0  0
 -113.1400   -5.9520   46.5730 H   0  0  0  0  0  0  0  0  0  0  0  0
 -111.7710   -6.0520   48.5020 H   0  0  0  0  0  0  0  0  0  0  0  0
 -112.4700   -7.5670   48.9980 H   0  0  0  0  0  0  0  0  0  0  0  0
 -110.7610   -7.5830   46.1410 N   0  0  0  0  0  0  0  0  0  0  0  0
 -109.6360   -8.1670   45.4030 C   0  0  0  0  0  0  0  0  0  0  0  0
 -108.2590   -7.6100   45.8190 C   0  0  0  0  0  0  0  0  0  0  0  0
 -107.3100   -8.3800   45.9480 O   0  0  0  0  0  0  0  0  0  0  0  0
 -109.8290   -7.9260   43.8990 C   0  0  0  0  0  0  0  0  0  0  0  0
 -111.0120   -8.6500   43.2500 C   0  0  0  0  0  0  0  0  0  0  0  0
 -110.9700   -8.5250   41.7150 C   0  0  0  0  0  0  0  0  0  0  0  0
 -110.9620   -7.0870   41.1480 C   0  0  0  0  0  0  0  0  0  0  0  0
 -112.1670   -6.3180   41.5000 N   0  3  0  0  0  0  0  0  0  0  0  0
 -111.3910   -6.9940   45.6070 H   0  0  0  0  0  0  0  0  0  0  0  0
 -109.6340   -9.2430   45.5860 H   0  0  0  0  0  0  0  0  0  0  0  0
 -109.9070   -6.8620   43.7040 H   0  0  0  0  0  0  0  0  0  0  0  0
 -108.9330   -8.2410   43.3810 H   0  0  0  0  0  0  0  0  0  0  0  0
 -110.9910   -9.7070   43.5230 H   0  0  0  0  0  0  0  0  0  0  0  0
 -111.9530   -8.2590   43.6380 H   0  0  0  0  0  0  0  0  0  0  0  0
 -110.0740   -9.0380   41.3620 H   0  0  0  0  0  0  0  0  0  0  0  0
 -111.7950   -9.0940   41.2930 H   0  0  0  0  0  0  0  0  0  0  0  0
 -110.0820   -6.5380   41.4800 H   0  0  0  0  0  0  0  0  0  0  0  0
 -110.9010   -7.1180   40.0630 H   0  0  0  0  0  0  0  0  0  0  0  0
 -112.9870   -6.7920   41.1450 H   0  0  0  0  0  0  0  0  0  0  0  0
 -112.2390   -6.2370   42.5080 H   0  0  0  0  0  0  0  0  0  0  0  0
 -112.1070   -5.3920   41.0990 H   0  0  0  0  0  0  0  0  0  0  0  0
 -108.1750   -6.2830   46.0110 N   0  0  0  0  0  0  0  0  0  0  0  0
 -106.9660   -5.5840   46.4520 C   0  0  0  0  0  0  0  0  0  0  0  0
 -106.7710   -5.6780   47.9780 C   0  0  0  0  0  0  0  0  0  0  0  0
 -105.6390   -5.5810   48.4460 O   0  0  0  0  0  0  0  0  0  0  0  0
 -107.0390   -4.1180   45.9920 C   0  0  0  0  0  0  0  0  0  0  0  0
 -106.9650   -4.0340   44.5860 O   0  0  0  0  0  0  0  0  0  0  0  0
 -108.9910   -5.7020   45.8590 H   0  0  0  0  0  0  0  0  0  0  0  0
 -106.0920   -6.0460   45.9870 H   0  0  0  0  0  0  0  0  0  0  0  0
 -107.9680   -3.6500   46.3080 H   0  0  0  0  0  0  0  0  0  0  0  0
 -106.2180   -3.5340   46.4100 H   0  0  0  0  0  0  0  0  0  0  0  0
 -106.0410   -4.1460   44.3170 H   0  0  0  0  0  0  0  0  0  0  0  0
 -107.8670   -5.9090   48.7210 N   0  0  0  0  0  0  0  0  0  0  0  0
 -107.8820   -6.2430   50.1430 C   0  0  0  0  0  0  0  0  0  0  0  0
 -107.3290   -7.6600   50.3910 C   0  0  0  0  0  0  0  0  0  0  0  0
 -106.5400   -7.8450   51.3160 O   0  0  0  0  0  0  0  0  0  0  0  0
 -109.3230   -6.0870   50.6640 C   0  0  0  0  0  0  0  0  0  0  0  0
 -109.4640   -6.1530   52.1590 C   0  0  0  0  0  0  0  0  0  0  0  0
 -109.7620   -7.2450   52.9480 C   0  0  0  0  0  0  0  0  0  0  0  0
 -109.3030   -5.0290   52.9750 N   0  0  0  0  0  0  0  0  0  0  0  0
 -109.5050   -5.4790   54.2060 C   0  0  0  0  0  0  0  0  0  0  0  0
 -109.7840   -6.7810   54.2480 N   0  0  0  0  0  0  0  0  0  0  0  0
 -108.7710   -5.8920   48.2660 H   0  0  0  0  0  0  0  0  0  0  0  0
 -107.2450   -5.5250   50.6640 H   0  0  0  0  0  0  0  0  0  0  0  0
 -109.7300   -5.1280   50.3470 H   0  0  0  0  0  0  0  0  0  0  0  0
 -109.9770   -6.8440   50.2320 H   0  0  0  0  0  0  0  0  0  0  0  0
 -109.9600   -8.2760   52.6970 H   0  0  0  0  0  0  0  0  0  0  0  0
 -109.4460   -4.8560   55.0820 H   0  0  0  0  0  0  0  0  0  0  0  0
 -109.9760   -7.3220   55.0780 H   0  0  0  0  0  0  0  0  0  0  0  0
 -101.4010    3.7520   38.6470 N   0  0  0  0  0  0  0  0  0  0  0  0
 -102.6000    3.9400   39.4710 C   0  0  0  0  0  0  0  0  0  0  0  0
 -103.0620    2.6670   40.2020 C   0  0  0  0  0  0  0  0  0  0  0  0
 -103.4450    2.7540   41.3690 O   0  0  0  0  0  0  0  0  0  0  0  0
 -103.7350    4.4910   38.5930 C   0  0  0  0  0  0  0  0  0  0  0  0
 -101.5300    3.8740   37.6530 H   0  0  0  0  0  0  0  0  0  0  0  0
 -102.3640    4.6890   40.2300 H   0  0  0  0  0  0  0  0  0  0  0  0
 -104.6520    4.6220   39.1690 H   0  0  0  0  0  0  0  0  0  0  0  0
 -103.4700    5.4640   38.1760 H   0  0  0  0  0  0  0  0  0  0  0  0
 -103.9620    3.8230   37.7610 H   0  0  0  0  0  0  0  0  0  0  0  0
 -102.9920    1.5140   39.5150 N   0  0  0  0  0  0  0  0  0  0  0  0
 -103.3260    0.2010   40.0650 C   0  0  0  0  0  0  0  0  0  0  0  0
 -102.2850   -0.3250   41.0720 C   0  0  0  0  0  0  0  0  0  0  0  0
 -102.6690   -1.0380   41.9980 O   0  0  0  0  0  0  0  0  0  0  0  0
 -103.5220   -0.7850   38.9080 C   0  0  0  0  0  0  0  0  0  0  0  0
 -102.6780    1.5260   38.5530 H   0  0  0  0  0  0  0  0  0  0  0  0
 -104.2780    0.2860   40.5930 H   0  0  0  0  0  0  0  0  0  0  0  0
 -103.7240   -1.7930   39.2720 H   0  0  0  0  0  0  0  0  0  0  0  0
 -104.3640   -0.4860   38.2830 H   0  0  0  0  0  0  0  0  0  0  0  0
 -102.6400   -0.8250   38.2680 H   0  0  0  0  0  0  0  0  0  0  0  0
 -102.9330    1.8140   44.3310 N   0  0  0  0  0  0  0  0  0  0  0  0
 -104.0820    1.2560   45.0450 C   0  0  0  0  0  0  0  0  0  0  0  0
 -103.7010    0.1360   46.0310 C   0  0  0  0  0  0  0  0  0  0  0  0
 -104.2790    0.0700   47.1160 O   0  0  0  0  0  0  0  0  0  0  0  0
 -105.1040    0.7520   44.0240 C   0  0  0  0  0  0  0  0  0  0  0  0
 -102.8930    1.6340   43.3370 H   0  0  0  0  0  0  0  0  0  0  0  0
 -104.5460    2.0620   45.6180 H   0  0  0  0  0  0  0  0  0  0  0  0
 -105.9760    0.3320   44.5240 H   0  0  0  0  0  0  0  0  0  0  0  0
 -105.4450    1.5650   43.3820 H   0  0  0  0  0  0  0  0  0  0  0  0
 -104.6890   -0.0260   43.3830 H   0  0  0  0  0  0  0  0  0  0  0  0
 -103.2370    0.5660   50.6540 N   0  0  0  0  0  0  0  0  0  0  0  0
 -103.6870   -0.5140   51.5290 C   0  0  0  0  0  0  0  0  0  0  0  0
 -102.5390   -1.1010   52.3580 C   0  0  0  0  0  0  0  0  0  0  0  0
 -102.7140   -1.3030   53.5580 O   0  0  0  0  0  0  0  0  0  0  0  0
 -104.3820   -1.5880   50.6810 C   0  0  0  0  0  0  0  0  0  0  0  0
 -105.7470   -1.1130   50.1790 C   0  0  0  0  0  0  0  0  0  0  0  0
 -106.4170   -2.1320   49.2540 C   0  0  0  0  0  0  0  0  0  0  0  0
 -107.8520   -1.7380   48.8870 C   0  0  0  0  0  0  0  0  0  0  0  0
 -108.7810   -1.9010   50.0180 N   0  3  0  0  0  0  0  0  0  0  0  0
 -103.0130    0.3070   49.7040 H   0  0  0  0  0  0  0  0  0  0  0  0
 -104.4200   -0.1110   52.2320 H   0  0  0  0  0  0  0  0  0  0  0  0
 -103.7490   -1.8740   49.8400 H   0  0  0  0  0  0  0  0  0  0  0  0
 -104.5370   -2.4890   51.2780 H   0  0  0  0  0  0  0  0  0  0  0  0
 -106.3820   -0.9080   51.0420 H   0  0  0  0  0  0  0  0  0  0  0  0
 -105.6440   -0.1670   49.6450 H   0  0  0  0  0  0  0  0  0  0  0  0
 -105.8290   -2.2120   48.3400 H   0  0  0  0  0  0  0  0  0  0  0  0
 -106.3980   -3.1240   49.7100 H   0  0  0  0  0  0  0  0  0  0  0  0
 -107.8920   -0.7100   48.5260 H   0  0  0  0  0  0  0  0  0  0  0  0
 -108.2030   -2.3670   48.0750 H   0  0  0  0  0  0  0  0  0  0  0  0
 -108.5040   -1.3070   50.7860 H   0  0  0  0  0  0  0  0  0  0  0  0
 -109.7080   -1.6430   49.7090 H   0  0  0  0  0  0  0  0  0  0  0  0
 -108.7850   -2.8660   50.3170 H   0  0  0  0  0  0  0  0  0  0  0  0
 -102.3030   -7.5290   40.1970 N   0  0  0  0  0  0  0  0  0  0  0  0
 -103.6160   -6.8770   40.2950 C   0  0  0  0  0  0  0  0  0  0  0  0
 -103.9870   -6.2280   38.9440 C   0  0  0  0  0  0  0  0  0  0  0  0
 -103.0970   -5.8120   38.2010 O   0  0  0  0  0  0  0  0  0  0  0  0
 -103.6220   -5.8350   41.4440 C   0  0  0  0  0  0  0  0  0  0  0  0
 -104.9800   -5.2280   41.8590 C   0  0  0  0  0  0  0  0  0  0  0  0
 -106.0290   -5.9050   41.7400 O   0  0  0  0  0  0  0  0  0  0  0  0
 -104.9380   -4.1230   42.4410 O   0  5  0  0  0  0  0  0  0  0  0  0
 -101.5050   -6.9430   40.4070 H   0  0  0  0  0  0  0  0  0  0  0  0
 -104.3610   -7.6380   40.5180 H   0  0  0  0  0  0  0  0  0  0  0  0
 -103.1900   -6.2950   42.3340 H   0  0  0  0  0  0  0  0  0  0  0  0
 -102.9320   -5.0300   41.1860 H   0  0  0  0  0  0  0  0  0  0  0  0
 -105.3010   -6.1450   38.6690 N   0  0  0  0  0  0  0  0  0  0  0  0
 -105.9160   -5.5780   37.4620 C   0  0  0  0  0  0  0  0  0  0  0  0
 -105.4730   -6.2980   36.1740 C   0  0  0  0  0  0  0  0  0  0  0  0
 -104.9340   -5.6730   35.2590 O   0  0  0  0  0  0  0  0  0  0  0  0
 -105.7240   -4.0400   37.4070 C   0  0  0  0  0  0  0  0  0  0  0  0
 -106.4430   -3.2620   38.5340 C   0  0  0  0  0  0  0  0  0  0  0  0
 -107.9640   -3.0710   38.3770 C   0  0  0  0  0  0  0  0  0  0  0  0
 -108.5540   -3.5800   37.3970 O   0  0  0  0  0  0  0  0  0  0  0  0
 -108.5180   -2.3670   39.2490 O   0  5  0  0  0  0  0  0  0  0  0  0
 -105.9500   -6.4890   39.3630 H   0  0  0  0  0  0  0  0  0  0  0  0
 -106.9820   -5.7840   37.5520 H   0  0  0  0  0  0  0  0  0  0  0  0
 -104.6610   -3.8030   37.4610 H   0  0  0  0  0  0  0  0  0  0  0  0
 -106.0380   -3.6560   36.4360 H   0  0  0  0  0  0  0  0  0  0  0  0
 -106.2450   -3.7270   39.5000 H   0  0  0  0  0  0  0  0  0  0  0  0
 -106.0030   -2.2680   38.5930 H   0  0  0  0  0  0  0  0  0  0  0  0
 -113.7410   -5.0060   33.5620 N   0  0  0  0  0  0  0  0  0  0  0  0
 -113.2100   -3.6520   33.7470 C   0  0  0  0  0  0  0  0  0  0  0  0
 -112.3460   -3.2240   32.5470 C   0  0  0  0  0  0  0  0  0  0  0  0
 -112.5470   -3.7270   31.4400 O   0  0  0  0  0  0  0  0  0  0  0  0
 -112.4840   -3.5470   35.1060 C   0  0  0  0  0  0  0  0  0  0  0  0
 -113.4490   -3.7140   36.2860 C   0  0  0  0  0  0  0  0  0  0  0  0
 -112.8120   -3.3380   37.6210 C   0  0  0  0  0  0  0  0  0  0  0  0
 -113.0360   -4.1510   38.6500 N   0  0  0  0  0  0  0  0  0  0  0  0
 -112.1670   -2.2980   37.7420 O   0  0  0  0  0  0  0  0  0  0  0  0
 -113.0910   -5.7610   33.7400 H   0  0  0  0  0  0  0  0  0  0  0  0
 -114.0340   -2.9380   33.7700 H   0  0  0  0  0  0  0  0  0  0  0  0
 -111.6830   -4.2860   35.1700 H   0  0  0  0  0  0  0  0  0  0  0  0
 -112.0040   -2.5740   35.2000 H   0  0  0  0  0  0  0  0  0  0  0  0
 -114.3280   -3.0830   36.1520 H   0  0  0  0  0  0  0  0  0  0  0  0
 -113.8110   -4.7370   36.3050 H   0  0  0  0  0  0  0  0  0  0  0  0
 -113.5930   -4.9890   38.5440 H   0  0  0  0  0  0  0  0  0  0  0  0
 -112.6820   -3.8620   39.5600 H   0  0  0  0  0  0  0  0  0  0  0  0
 -118.2320   -5.1660   48.7760 N   0  0  0  0  0  0  0  0  0  0  0  0
 -118.0080   -4.6090   50.1080 C   0  0  0  0  0  0  0  0  0  0  0  0
 -117.8920   -3.0680   50.1100 C   0  0  0  0  0  0  0  0  0  0  0  0
 -118.0250   -2.4610   51.1710 O   0  0  0  0  0  0  0  0  0  0  0  0
 -116.7500   -5.2870   50.6950 C   0  0  0  0  0  0  0  0  0  0  0  0
 -116.7280   -5.3340   52.2340 C   0  0  0  0  0  0  0  0  0  0  0  0
 -117.5900   -6.4710   52.8080 C   0  0  0  0  0  0  0  0  0  0  0  0
 -117.7390   -6.3610   54.2700 N   0  0  0  0  0  0  0  0  0  0  0  0
 -117.1160   -7.0350   55.2570 C   0  0  0  0  0  0  0  0  0  0  0  0
 -117.4330   -6.7530   56.5270 N   0  3  0  0  0  0  0  0  0  0  0  0
 -116.1960   -7.9800   55.0220 N   0  3  0  0  0  0  0  0  0  0  0  0
 -117.3990   -5.4550   48.2810 H   0  0  0  0  0  0  0  0  0  0  0  0
 -118.8610   -4.8790   50.7260 H   0  0  0  0  0  0  0  0  0  0  0  0
 -116.6810   -6.3170   50.3380 H   0  0  0  0  0  0  0  0  0  0  0  0
 -115.8540   -4.7950   50.3150 H   0  0  0  0  0  0  0  0  0  0  0  0
 -115.7030   -5.5640   52.5080 H   0  0  0  0  0  0  0  0  0  0  0  0
 -116.9400   -4.3680   52.6950 H   0  0  0  0  0  0  0  0  0  0  0  0
 -118.5530   -6.5560   52.3050 H   0  0  0  0  0  0  0  0  0  0  0  0
 -117.0810   -7.4110   52.6030 H   0  0  0  0  0  0  0  0  0  0  0  0
 -118.4150   -5.6660   54.5520 H   0  0  0  0  0  0  0  0  0  0  0  0
 -118.1370   -6.0610   56.7410 H   0  0  0  0  0  0  0  0  0  0  0  0
 -116.9820   -7.2430   57.2860 H   0  0  0  0  0  0  0  0  0  0  0  0
 -115.9370   -8.2070   54.0730 H   0  0  0  0  0  0  0  0  0  0  0  0
 -115.7280   -8.4490   55.7850 H   0  0  0  0  0  0  0  0  0  0  0  0
 -117.6420   -2.4700   48.9310 N   0  0  0  0  0  0  0  0  0  0  0  0
 -117.4290   -1.0370   48.7250 C   0  0  0  0  0  0  0  0  0  0  0  0
 -118.7370   -0.2410   48.6210 C   0  0  0  0  0  0  0  0  0  0  0  0
 -118.9440    0.6830   49.4050 O   0  0  0  0  0  0  0  0  0  0  0  0
 -116.5930   -0.8500   47.4400 C   0  0  0  0  0  0  0  0  0  0  0  0
 -116.2820    0.6110   47.0460 C   0  0  0  0  0  0  0  0  0  0  0  0
 -115.5160    0.7220   45.7190 C   0  0  0  0  0  0  0  0  0  0  0  0
 -114.1290    0.2430   45.8330 N   0  0  0  0  0  0  0  0  0  0  0  0
 -113.2450    0.0690   44.8370 C   0  0  0  0  0  0  0  0  0  0  0  0
 -113.5720    0.2580   43.5530 N   0  3  0  0  0  0  0  0  0  0  0  0
 -111.9940   -0.3040   45.1270 N   0  3  0  0  0  0  0  0  0  0  0  0
 -117.5380   -3.0510   48.1110 H   0  0  0  0  0  0  0  0  0  0  0  0
 -116.8560   -0.6430   49.5670 H   0  0  0  0  0  0  0  0  0  0  0  0
 -115.6640   -1.4030   47.5360 H   0  0  0  0  0  0  0  0  0  0  0  0
 -117.1220   -1.3170   46.6100 H   0  0  0  0  0  0  0  0  0  0  0  0
 -117.1620    1.2510   47.0010 H   0  0  0  0  0  0  0  0  0  0  0  0
 -115.6690    1.0240   47.8490 H   0  0  0  0  0  0  0  0  0  0  0  0
 -115.9900    0.0520   45.0000 H   0  0  0  0  0  0  0  0  0  0  0  0
 -115.5820    1.7250   45.2960 H   0  0  0  0  0  0  0  0  0  0  0  0
 -113.7820    0.1610   46.7810 H   0  0  0  0  0  0  0  0  0  0  0  0
 -114.5050    0.5520   43.2960 H   0  0  0  0  0  0  0  0  0  0  0  0
 -112.8720    0.1020   42.8370 H   0  0  0  0  0  0  0  0  0  0  0  0
 -111.7040   -0.5040   46.0780 H   0  0  0  0  0  0  0  0  0  0  0  0
 -111.3330   -0.4470   44.3700 H   0  0  0  0  0  0  0  0  0  0  0  0
 -108.4160    3.7910   38.5610 N   0  0  0  0  0  0  0  0  0  0  0  0
 -108.2930    2.3360   38.6430 C   0  0  0  0  0  0  0  0  0  0  0  0
 -107.6740    1.8700   39.9760 C   0  0  0  0  0  0  0  0  0  0  0  0
 -106.6800    2.4420   40.4250 O   0  0  0  0  0  0  0  0  0  0  0  0
 -107.4780    1.8500   37.4330 C   0  0  0  0  0  0  0  0  0  0  0  0
 -107.3830    0.3170   37.3330 C   0  0  0  0  0  0  0  0  0  0  0  0
 -106.6120   -0.1400   36.1010 C   0  0  0  0  0  0  0  0  0  0  0  0
 -107.0130   -1.2720   35.5220 N   0  0  0  0  0  0  0  0  0  0  0  0
 -105.6480    0.5030   35.6930 O   0  0  0  0  0  0  0  0  0  0  0  0
 -107.8900    4.2330   37.8220 H   0  0  0  0  0  0  0  0  0  0  0  0
 -109.3010    1.9250   38.5600 H   0  0  0  0  0  0  0  0  0  0  0  0
 -107.9390    2.2330   36.5210 H   0  0  0  0  0  0  0  0  0  0  0  0
 -106.4770    2.2850   37.4730 H   0  0  0  0  0  0  0  0  0  0  0  0
 -106.8770   -0.0950   38.2050 H   0  0  0  0  0  0  0  0  0  0  0  0
 -108.3870   -0.1110   37.3150 H   0  0  0  0  0  0  0  0  0  0  0  0
 -107.7790   -1.8060   35.9120 H   0  0  0  0  0  0  0  0  0  0  0  0
 -106.5310   -1.6160   34.7050 H   0  0  0  0  0  0  0  0  0  0  0  0
 -108.3020    0.8490   40.5800 N   0  0  0  0  0  0  0  0  0  0  0  0
 -107.9670    0.2890   41.8900 C   0  0  0  0  0  0  0  0  0  0  0  0
 -108.4500    1.1590   43.0710 C   0  0  0  0  0  0  0  0  0  0  0  0
 -108.5950    0.6360   44.1760 O   0  0  0  0  0  0  0  0  0  0  0  0
 -109.0770    0.4090   40.1030 H   0  0  0  0  0  0  0  0  0  0  0  0
 -108.4040   -0.7060   41.9650 H   0  0  0  0  0  0  0  0  0  0  0  0
 -106.8880    0.1500   41.9580 H   0  0  0  0  0  0  0  0  0  0  0  0
 -110.8470    4.3210   45.2200 N   0  0  0  0  0  0  0  0  0  0  0  0
 -112.2070    4.4830   45.7290 C   0  0  0  0  0  0  0  0  0  0  0  0
 -112.3550    5.8270   46.4530 C   0  0  0  0  0  0  0  0  0  0  0  0
 -111.3980    6.3070   47.0620 O   0  0  0  0  0  0  0  0  0  0  0  0
 -112.5570    3.2950   46.6460 C   0  0  0  0  0  0  0  0  0  0  0  0
 -111.5680    3.0650   47.8160 C   0  0  0  0  0  0  0  0  0  0  0  0
 -111.9910    2.0250   48.8610 C   0  0  0  0  0  0  0  0  0  0  0  0
 -113.0400    1.3650   48.6900 O   0  0  0  0  0  0  0  0  0  0  0  0
 -111.2550    1.9330   49.8670 O   0  5  0  0  0  0  0  0  0  0  0  0
 -110.1290    4.7930   45.7500 H   0  0  0  0  0  0  0  0  0  0  0  0
 -112.8920    4.4900   44.8790 H   0  0  0  0  0  0  0  0  0  0  0  0
 -113.5740    3.4250   47.0200 H   0  0  0  0  0  0  0  0  0  0  0  0
 -112.5790    2.4030   46.0280 H   0  0  0  0  0  0  0  0  0  0  0  0
 -110.6030    2.7500   47.4150 H   0  0  0  0  0  0  0  0  0  0  0  0
 -111.3830    4.0000   48.3420 H   0  0  0  0  0  0  0  0  0  0  0  0
 -116.5060    3.4260   41.6240 N   0  0  0  0  0  0  0  0  0  0  0  0
 -115.5100    4.0480   42.5050 C   0  0  0  0  0  0  0  0  0  0  0  0
 -116.1560    4.5800   43.8040 C   0  0  0  0  0  0  0  0  0  0  0  0
 -115.4930    4.5890   44.8400 O   0  0  0  0  0  0  0  0  0  0  0  0
 -114.7960    5.2170   41.7860 C   0  0  0  0  0  0  0  0  0  0  0  0
 -114.1140    4.9560   40.4260 C   0  0  0  0  0  0  0  0  0  0  0  0
 -113.0430    3.8450   40.3760 C   0  0  0  0  0  0  0  0  0  0  0  0
 -113.5840    2.4780   40.2710 N   0  0  0  0  0  0  0  0  0  0  0  0
 -112.8970    1.3230   40.3240 C   0  0  0  0  0  0  0  0  0  0  0  0
 -111.5860    1.2980   40.5900 N   0  3  0  0  0  0  0  0  0  0  0  0
 -113.5330    0.1640   40.1060 N   0  3  0  0  0  0  0  0  0  0  0  0
 -116.9620    4.0390   40.9640 H   0  0  0  0  0  0  0  0  0  0  0  0
 -114.7590    3.3070   42.7860 H   0  0  0  0  0  0  0  0  0  0  0  0
 -115.5110    6.0240   41.6280 H   0  0  0  0  0  0  0  0  0  0  0  0
 -114.0410    5.6240   42.4610 H   0  0  0  0  0  0  0  0  0  0  0  0
 -114.9170    4.7060   39.7360 H   0  0  0  0  0  0  0  0  0  0  0  0
 -113.6950    5.8800   40.0260 H   0  0  0  0  0  0  0  0  0  0  0  0
 -112.3120    4.0390   39.5940 H   0  0  0  0  0  0  0  0  0  0  0  0
 -112.5050    3.8720   41.3220 H   0  0  0  0  0  0  0  0  0  0  0  0
 -114.5620    2.4330   40.0180 H   0  0  0  0  0  0  0  0  0  0  0  0
 -111.0860    2.1610   40.7550 H   0  0  0  0  0  0  0  0  0  0  0  0
 -111.1330    0.4120   40.7910 H   0  0  0  0  0  0  0  0  0  0  0  0
 -114.5170    0.1490   39.8840 H   0  0  0  0  0  0  0  0  0  0  0  0
 -113.0210   -0.7130   40.1410 H   0  0  0  0  0  0  0  0  0  0  0  0
  1  2  1  0  0  0  0
  1  7  1  0  0  0  0
  2  3  1  0  0  0  0
  2  5  1  0  0  0  0
  2  8  1  0  0  0  0
  3  4  2  0  0  0  0
  3 15  1  0  0  0  0
  5  6  1  0  0  0  0
  5  9  1  0  0  0  0
  5 10  1  0  0  0  0
  6  7  1  0  0  0  0
  6 11  1  0  0  0  0
  6 12  1  0  0  0  0
  7 13  1  0  0  0  0
  7 14  1  0  0  0  0
 15 16  1  0  0  0  0
 15 19  1  0  0  0  0
 16 17  1  0  0  0  0
 16 20  1  0  0  0  0
 16 21  1  0  0  0  0
 17 18  2  0  0  0  0
 17 22  1  0  0  0  0
 22 23  1  0  0  0  0
 22 29  1  0  0  0  0
 23 24  1  0  0  0  0
 23 26  1  0  0  0  0
 23 30  1  0  0  0  0
 24 25  2  0  0  0  0
 24 36  1  0  0  0  0
 26 27  1  0  0  0  0
 26 28  1  0  0  0  0
 26 31  1  0  0  0  0
 27 33  1  0  0  0  0
 27 34  1  0  0  0  0
 27 35  1  0  0  0  0
 28 32  1  0  0  0  0
 36 37  1  0  0  0  0
 36 40  1  0  0  0  0
 37 38  1  0  0  0  0
 37 41  1  0  0  0  0
 37 42  1  0  0  0  0
 38 39  2  0  0  0  0
 38 43  1  0  0  0  0
 43 44  1  0  0  0  0
 43 52  1  0  0  0  0
 44 45  1  0  0  0  0
 44 47  1  0  0  0  0
 44 53  1  0  0  0  0
 45 46  2  0  0  0  0
 45 65  1  0  0  0  0
 47 48  1  0  0  0  0
 47 54  1  0  0  0  0
 47 55  1  0  0  0  0
 48 49  1  0  0  0  0
 48 56  1  0  0  0  0
 48 57  1  0  0  0  0
 49 50  1  0  0  0  0
 49 58  1  0  0  0  0
 49 59  1  0  0  0  0
 50 51  1  0  0  0  0
 50 60  1  0  0  0  0
 50 61  1  0  0  0  0
 51 62  1  0  0  0  0
 51 63  1  0  0  0  0
 51 64  1  0  0  0  0
 65 66  1  0  0  0  0
 65 71  1  0  0  0  0
 66 67  1  0  0  0  0
 66 69  1  0  0  0  0
 66 72  1  0  0  0  0
 67 68  2  0  0  0  0
 67 76  1  0  0  0  0
 69 70  1  0  0  0  0
 69 73  1  0  0  0  0
 69 74  1  0  0  0  0
 70 75  1  0  0  0  0
 76 77  1  0  0  0  0
 76 86  1  0  0  0  0
 77 78  1  0  0  0  0
 77 80  1  0  0  0  0
 77 87  1  0  0  0  0
 78 79  2  0  0  0  0
 80 81  1  0  0  0  0
 80 88  1  0  0  0  0
 80 89  1  0  0  0  0
 81 82  2  0  0  0  0
 81 83  1  0  0  0  0
 82 85  1  0  0  0  0
 82 90  1  0  0  0  0
 83 84  2  0  0  0  0
 84 85  1  0  0  0  0
 84 91  1  0  0  0  0
 85 92  1  0  0  0  0
 93 94  1  0  0  0  0
 93 98  1  0  0  0  0
 94 95  1  0  0  0  0
 94 97  1  0  0  0  0
 94 99  1  0  0  0  0
 95 96  2  0  0  0  0
 95103  1  0  0  0  0
 97100  1  0  0  0  0
 97101  1  0  0  0  0
 97102  1  0  0  0  0
103104  1  0  0  0  0
103108  1  0  0  0  0
104105  1  0  0  0  0
104107  1  0  0  0  0
104109  1  0  0  0  0
105106  2  0  0  0  0
107110  1  0  0  0  0
107111  1  0  0  0  0
107112  1  0  0  0  0
113114  1  0  0  0  0
113118  1  0  0  0  0
114115  1  0  0  0  0
114117  1  0  0  0  0
114119  1  0  0  0  0
115116  2  0  0  0  0
117120  1  0  0  0  0
117121  1  0  0  0  0
117122  1  0  0  0  0
123124  1  0  0  0  0
123132  1  0  0  0  0
124125  1  0  0  0  0
124127  1  0  0  0  0
124133  1  0  0  0  0
125126  2  0  0  0  0
127128  1  0  0  0  0
127134  1  0  0  0  0
127135  1  0  0  0  0
128129  1  0  0  0  0
128136  1  0  0  0  0
128137  1  0  0  0  0
129130  1  0  0  0  0
129138  1  0  0  0  0
129139  1  0  0  0  0
130131  1  0  0  0  0
130140  1  0  0  0  0
130141  1  0  0  0  0
131142  1  0  0  0  0
131143  1  0  0  0  0
131144  1  0  0  0  0
145146  1  0  0  0  0
145153  1  0  0  0  0
146147  1  0  0  0  0
146149  1  0  0  0  0
146154  1  0  0  0  0
147148  2  0  0  0  0
147157  1  0  0  0  0
149150  1  0  0  0  0
149155  1  0  0  0  0
149156  1  0  0  0  0
150151  2  0  0  0  0
150152  1  0  0  0  0
157158  1  0  0  0  0
157166  1  0  0  0  0
158159  1  0  0  0  0
158161  1  0  0  0  0
158167  1  0  0  0  0
159160  2  0  0  0  0
161162  1  0  0  0  0
161168  1  0  0  0  0
161169  1  0  0  0  0
162163  1  0  0  0  0
162170  1  0  0  0  0
162171  1  0  0  0  0
163164  2  0  0  0  0
163165  1  0  0  0  0
172173  1  0  0  0  0
172181  1  0  0  0  0
173174  1  0  0  0  0
173176  1  0  0  0  0
173182  1  0  0  0  0
174175  2  0  0  0  0
176177  1  0  0  0  0
176183  1  0  0  0  0
176184  1  0  0  0  0
177178  1  0  0  0  0
177185  1  0  0  0  0
177186  1  0  0  0  0
178179  1  0  0  0  0
178180  2  0  0  0  0
179187  1  0  0  0  0
179188  1  0  0  0  0
189190  1  0  0  0  0
189200  1  0  0  0  0
190191  1  0  0  0  0
190193  1  0  0  0  0
190201  1  0  0  0  0
191192  2  0  0  0  0
191213  1  0  0  0  0
193194  1  0  0  0  0
193202  1  0  0  0  0
193203  1  0  0  0  0
194195  1  0  0  0  0
194204  1  0  0  0  0
194205  1  0  0  0  0
195196  1  0  0  0  0
195206  1  0  0  0  0
195207  1  0  0  0  0
196197  1  0  0  0  0
196208  1  0  0  0  0
197198  2  0  0  0  0
197199  1  0  0  0  0
198209  1  0  0  0  0
198210  1  0  0  0  0
199211  1  0  0  0  0
199212  1  0  0  0  0
213214  1  0  0  0  0
213224  1  0  0  0  0
214215  1  0  0  0  0
214217  1  0  0  0  0
214225  1  0  0  0  0
215216  2  0  0  0  0
217218  1  0  0  0  0
217226  1  0  0  0  0
217227  1  0  0  0  0
218219  1  0  0  0  0
218228  1  0  0  0  0
218229  1  0  0  0  0
219220  1  0  0  0  0
219230  1  0  0  0  0
219231  1  0  0  0  0
220221  1  0  0  0  0
220232  1  0  0  0  0
221222  2  0  0  0  0
221223  1  0  0  0  0
222233  1  0  0  0  0
222234  1  0  0  0  0
223235  1  0  0  0  0
223236  1  0  0  0  0
237238  1  0  0  0  0
237246  1  0  0  0  0
238239  1  0  0  0  0
238241  1  0  0  0  0
238247  1  0  0  0  0
239240  2  0  0  0  0
239254  1  0  0  0  0
241242  1  0  0  0  0
241248  1  0  0  0  0
241249  1  0  0  0  0
242243  1  0  0  0  0
242250  1  0  0  0  0
242251  1  0  0  0  0
243244  1  0  0  0  0
243245  2  0  0  0  0
244252  1  0  0  0  0
244253  1  0  0  0  0
254255  1  0  0  0  0
254258  1  0  0  0  0
255256  1  0  0  0  0
255259  1  0  0  0  0
255260  1  0  0  0  0
256257  2  0  0  0  0
261262  1  0  0  0  0
261270  1  0  0  0  0
262263  1  0  0  0  0
262265  1  0  0  0  0
262271  1  0  0  0  0
263264  2  0  0  0  0
265266  1  0  0  0  0
265272  1  0  0  0  0
265273  1  0  0  0  0
266267  1  0  0  0  0
266274  1  0  0  0  0
266275  1  0  0  0  0
267268  2  0  0  0  0
267269  1  0  0  0  0
276277  1  0  0  0  0
276287  1  0  0  0  0
277278  1  0  0  0  0
277280  1  0  0  0  0
277288  1  0  0  0  0
278279  2  0  0  0  0
280281  1  0  0  0  0
280289  1  0  0  0  0
280290  1  0  0  0  0
281282  1  0  0  0  0
281291  1  0  0  0  0
281292  1  0  0  0  0
282283  1  0  0  0  0
282293  1  0  0  0  0
282294  1  0  0  0  0
283284  1  0  0  0  0
283295  1  0  0  0  0
284285  2  0  0  0  0
284286  1  0  0  0  0
285296  1  0  0  0  0
285297  1  0  0  0  0
286298  1  0  0  0  0
286299  1  0  0  0  0
M  END
$$$$
