obj01
  PyMOL2.5          3D                             0

809795  0  0  0  0  0  0  0  0999 V2000
  -12.5680    8.2740  -21.5670 N   0  0  0  0  0  0  0  0  0  0  0  0
  -12.0900    9.6260  -21.8250 C   0  0  0  0  0  0  0  0  0  0  0  0
  -10.9110    9.9920  -20.9330 C   0  0  0  0  0  0  0  0  0  0  0  0
  -10.0680   10.8010  -21.3340 O   0  0  0  0  0  0  0  0  0  0  0  0
  -13.2600   10.5840  -21.5450 C   0  0  0  0  0  0  0  0  0  0  0  0
  -14.4600   10.3010  -22.4150 C   0  0  0  0  0  0  0  0  0  0  0  0
  -15.3880    9.3270  -22.0510 C   0  0  0  0  0  0  0  0  0  0  0  0
  -14.6560   11.0000  -23.6010 C   0  0  0  0  0  0  0  0  0  0  0  0
  -16.4710    9.0320  -22.8680 C   0  0  0  0  0  0  0  0  0  0  0  0
  -15.7660   10.7400  -24.3940 C   0  0  0  0  0  0  0  0  0  0  0  0
  -16.6730    9.7580  -24.0310 C   0  0  0  0  0  0  0  0  0  0  0  0
  -17.7810    9.5290  -24.8200 O   0  0  0  0  0  0  0  0  0  0  0  0
  -13.3960    8.1040  -21.0320 H   0  0  0  0  0  0  0  0  0  0  0  0
  -11.7840    9.6840  -22.8700 H   0  0  0  0  0  0  0  0  0  0  0  0
  -13.5600   10.4840  -20.5020 H   0  0  0  0  0  0  0  0  0  0  0  0
  -12.9500   11.6200  -21.6840 H   0  0  0  0  0  0  0  0  0  0  0  0
  -15.2530    8.7660  -21.1380 H   0  0  0  0  0  0  0  0  0  0  0  0
  -13.9420   11.7490  -23.9110 H   0  0  0  0  0  0  0  0  0  0  0  0
  -17.1650    8.2510  -22.5890 H   0  0  0  0  0  0  0  0  0  0  0  0
  -15.9350   11.2890  -25.3050 H   0  0  0  0  0  0  0  0  0  0  0  0
  -18.1390    8.6700  -24.6210 H   0  0  0  0  0  0  0  0  0  0  0  0
   -8.0390    8.8160  -22.7730 N   0  0  0  0  0  0  0  0  0  0  0  0
   -7.8720    9.6450  -23.9590 C   0  0  0  0  0  0  0  0  0  0  0  0
   -7.1990   10.9740  -23.6530 C   0  0  0  0  0  0  0  0  0  0  0  0
   -6.6810   11.6200  -24.5710 O   0  0  0  0  0  0  0  0  0  0  0  0
   -9.2410    9.8730  -24.6050 C   0  0  0  0  0  0  0  0  0  0  0  0
   -8.9550    8.5700  -22.4520 H   0  0  0  0  0  0  0  0  0  0  0  0
   -7.2290    9.0880  -24.6430 H   0  0  0  0  0  0  0  0  0  0  0  0
   -9.1530   10.4230  -25.5420 H   0  0  0  0  0  0  0  0  0  0  0  0
   -9.7180    8.9180  -24.8260 H   0  0  0  0  0  0  0  0  0  0  0  0
   -9.9040   10.4330  -23.9460 H   0  0  0  0  0  0  0  0  0  0  0  0
   -7.1870   11.3970  -22.3920 N   0  0  0  0  0  0  0  0  0  0  0  0
   -6.5520   12.6500  -22.0150 C   0  0  0  0  0  0  0  0  0  0  0  0
   -5.2730   12.4740  -21.2080 C   0  0  0  0  0  0  0  0  0  0  0  0
   -4.6690   13.4780  -20.8200 O   0  0  0  0  0  0  0  0  0  0  0  0
   -7.5610   13.4640  -21.1820 C   0  0  0  0  0  0  0  0  0  0  0  0
   -8.5390   14.2160  -22.0910 C   0  0  0  0  0  0  0  0  0  0  0  0
   -9.6980   13.5830  -22.3120 N   0  0  0  0  0  0  0  0  0  0  0  0
   -8.2560   15.3090  -22.5590 O   0  0  0  0  0  0  0  0  0  0  0  0
   -7.6300   10.8230  -21.7000 H   0  0  0  0  0  0  0  0  0  0  0  0
   -6.2780   13.2160  -22.9030 H   0  0  0  0  0  0  0  0  0  0  0  0
   -8.1150   12.8150  -20.5040 H   0  0  0  0  0  0  0  0  0  0  0  0
   -7.0710   14.2230  -20.5710 H   0  0  0  0  0  0  0  0  0  0  0  0
   -9.8710   12.6780  -21.9250 H   0  0  0  0  0  0  0  0  0  0  0  0
  -10.4010   14.0230  -22.8660 H   0  0  0  0  0  0  0  0  0  0  0  0
   -9.0410   10.8550  -30.2410 N   0  0  0  0  0  0  0  0  0  0  0  0
  -10.0040   11.8650  -30.6650 C   0  0  0  0  0  0  0  0  0  0  0  0
  -10.7320   11.4240  -31.9300 C   0  0  0  0  0  0  0  0  0  0  0  0
  -11.9640   11.4770  -31.9960 O   0  0  0  0  0  0  0  0  0  0  0  0
   -9.2710   13.1950  -30.8690 C   0  0  0  0  0  0  0  0  0  0  0  0
   -8.0610   11.0160  -30.3290 H   0  0  0  0  0  0  0  0  0  0  0  0
  -10.7420   11.9740  -29.8690 H   0  0  0  0  0  0  0  0  0  0  0  0
   -9.9470   13.9800  -31.2050 H   0  0  0  0  0  0  0  0  0  0  0  0
   -8.8120   13.5310  -29.9390 H   0  0  0  0  0  0  0  0  0  0  0  0
   -8.4760   13.0970  -31.6050 H   0  0  0  0  0  0  0  0  0  0  0  0
  -13.0790    8.3260  -31.0080 N   0  0  0  0  0  0  0  0  0  0  0  0
  -14.2930    8.7570  -30.3240 C   0  0  0  0  0  0  0  0  0  0  0  0
  -15.2350    9.4840  -31.2730 C   0  0  0  0  0  0  0  0  0  0  0  0
  -16.4470    9.2380  -31.2650 O   0  0  0  0  0  0  0  0  0  0  0  0
  -13.8400    9.7070  -29.1970 C   0  0  0  0  0  0  0  0  0  0  0  0
  -14.9530   10.5180  -28.5040 C   0  0  0  0  0  0  0  0  0  0  0  0
  -15.9500    9.6120  -27.7710 C   0  0  0  0  0  0  0  0  0  0  0  0
  -14.3400   11.5560  -27.5560 C   0  0  0  0  0  0  0  0  0  0  0  0
  -12.1920    8.6740  -30.7070 H   0  0  0  0  0  0  0  0  0  0  0  0
  -14.7920    7.8720  -29.9250 H   0  0  0  0  0  0  0  0  0  0  0  0
  -13.2840    9.1360  -28.4520 H   0  0  0  0  0  0  0  0  0  0  0  0
  -13.1230   10.4140  -29.6170 H   0  0  0  0  0  0  0  0  0  0  0  0
  -15.5050   11.0790  -29.2580 H   0  0  0  0  0  0  0  0  0  0  0  0
  -16.7820   10.1880  -27.3650 H   0  0  0  0  0  0  0  0  0  0  0  0
  -16.3680    8.8600  -28.4380 H   0  0  0  0  0  0  0  0  0  0  0  0
  -15.4710    9.0930  -26.9420 H   0  0  0  0  0  0  0  0  0  0  0  0
  -15.1080   12.2090  -27.1440 H   0  0  0  0  0  0  0  0  0  0  0  0
  -13.8160   11.0730  -26.7310 H   0  0  0  0  0  0  0  0  0  0  0  0
  -13.6240   12.1880  -28.0820 H   0  0  0  0  0  0  0  0  0  0  0  0
  -14.6980   10.3830  -32.1000 N   0  0  0  0  0  0  0  0  0  0  0  0
  -15.5610   11.1950  -32.9500 C   0  0  0  0  0  0  0  0  0  0  0  0
  -16.1920   10.3580  -34.0550 C   0  0  0  0  0  0  0  0  0  0  0  0
  -17.3730   10.5320  -34.3730 O   0  0  0  0  0  0  0  0  0  0  0  0
  -14.7830   12.3880  -33.5370 C   0  0  0  0  0  0  0  0  0  0  0  0
  -15.7130   13.4790  -34.1050 C   0  0  0  0  0  0  0  0  0  0  0  0
  -16.3290   14.3500  -32.9950 C   0  0  0  0  0  0  0  0  0  0  0  0
  -17.5450   15.1770  -33.4330 C   0  0  0  0  0  0  0  0  0  0  0  0
  -18.7140   14.3420  -33.6760 N   0  3  0  0  0  0  0  0  0  0  0  0
  -13.7060   10.4930  -32.1160 H   0  0  0  0  0  0  0  0  0  0  0  0
  -16.3670   11.5590  -32.3100 H   0  0  0  0  0  0  0  0  0  0  0  0
  -14.1480   12.8280  -32.7680 H   0  0  0  0  0  0  0  0  0  0  0  0
  -14.1010   12.0360  -34.3120 H   0  0  0  0  0  0  0  0  0  0  0  0
  -15.1490   14.1220  -34.7830 H   0  0  0  0  0  0  0  0  0  0  0  0
  -16.4960   13.0220  -34.7110 H   0  0  0  0  0  0  0  0  0  0  0  0
  -16.6290   13.7310  -32.1490 H   0  0  0  0  0  0  0  0  0  0  0  0
  -15.5590   15.0180  -32.6080 H   0  0  0  0  0  0  0  0  0  0  0  0
  -17.8100   15.8650  -32.6270 H   0  0  0  0  0  0  0  0  0  0  0  0
  -17.3460   15.7770  -34.3230 H   0  0  0  0  0  0  0  0  0  0  0  0
  -18.7320   13.5450  -33.0080 H   0  0  0  0  0  0  0  0  0  0  0  0
  -19.5990   14.8390  -33.4520 H   0  0  0  0  0  0  0  0  0  0  0  0
  -18.7750   13.9970  -34.6550 H   0  0  0  0  0  0  0  0  0  0  0  0
  -19.0030    8.3720  -32.5210 N   0  0  0  0  0  0  0  0  0  0  0  0
  -20.1960    9.1870  -32.3380 C   0  0  0  0  0  0  0  0  0  0  0  0
  -20.9670    9.3290  -33.6430 C   0  0  0  0  0  0  0  0  0  0  0  0
  -22.1830    9.1070  -33.6860 O   0  0  0  0  0  0  0  0  0  0  0  0
  -19.7190   10.5660  -31.8460 C   0  0  0  0  0  0  0  0  0  0  0  0
  -20.8360   11.5820  -31.5110 C   0  0  0  0  0  0  0  0  0  0  0  0
  -20.3600   13.0120  -31.8340 C   0  0  0  0  0  0  0  0  0  0  0  0
  -21.0090   13.7310  -32.5930 O   0  0  0  0  0  0  0  0  0  0  0  0
  -19.3120   13.4180  -31.3470 O   0  5  0  0  0  0  0  0  0  0  0  0
  -18.1060    8.7810  -32.3480 H   0  0  0  0  0  0  0  0  0  0  0  0
  -20.8280    8.6990  -31.5960 H   0  0  0  0  0  0  0  0  0  0  0  0
  -19.0890   10.4400  -30.9650 H   0  0  0  0  0  0  0  0  0  0  0  0
  -19.0550   10.9790  -32.6060 H   0  0  0  0  0  0  0  0  0  0  0  0
  -21.7460   11.3790  -32.0710 H   0  0  0  0  0  0  0  0  0  0  0  0
  -21.1020   11.5300  -30.4560 H   0  0  0  0  0  0  0  0  0  0  0  0
  -20.2680    9.6810  -34.7260 N   0  0  0  0  0  0  0  0  0  0  0  0
  -20.9360    9.8990  -36.0050 C   0  0  0  0  0  0  0  0  0  0  0  0
  -21.5360    8.6090  -36.5540 C   0  0  0  0  0  0  0  0  0  0  0  0
  -22.6190    8.6270  -37.1510 O   0  0  0  0  0  0  0  0  0  0  0  0
  -19.9170   10.4970  -36.9980 C   0  0  0  0  0  0  0  0  0  0  0  0
  -19.3550   11.8710  -36.5790 C   0  0  0  0  0  0  0  0  0  0  0  0
  -20.4200   12.9670  -36.4340 C   0  0  0  0  0  0  0  0  0  0  0  0
  -20.1780   13.9570  -35.7500 O   0  0  0  0  0  0  0  0  0  0  0  0
  -21.5090   12.8510  -36.9790 O   0  5  0  0  0  0  0  0  0  0  0  0
  -19.2790    9.8060  -34.6410 H   0  0  0  0  0  0  0  0  0  0  0  0
  -21.7560   10.5950  -35.8340 H   0  0  0  0  0  0  0  0  0  0  0  0
  -19.0840    9.8030  -37.1150 H   0  0  0  0  0  0  0  0  0  0  0  0
  -20.3620   10.5920  -37.9870 H   0  0  0  0  0  0  0  0  0  0  0  0
  -18.8420   11.7980  -35.6260 H   0  0  0  0  0  0  0  0  0  0  0  0
  -18.6170   12.2160  -37.3000 H   0  0  0  0  0  0  0  0  0  0  0  0
  -24.6170    7.6380  -34.6540 N   0  0  0  0  0  0  0  0  0  0  0  0
  -25.7520    8.4550  -35.0770 C   0  0  0  0  0  0  0  0  0  0  0  0
  -26.5340    7.7760  -36.1950 C   0  0  0  0  0  0  0  0  0  0  0  0
  -27.7680    7.8560  -36.2370 O   0  0  0  0  0  0  0  0  0  0  0  0
  -25.3300    9.8370  -35.6130 C   0  0  0  0  0  0  0  0  0  0  0  0
  -24.8300   10.8060  -34.5410 C   0  0  0  0  0  0  0  0  0  0  0  0
  -24.2210   12.0750  -35.1580 C   0  0  0  0  0  0  0  0  0  0  0  0
  -23.1810   12.7040  -34.2290 C   0  0  0  0  0  0  0  0  0  0  0  0
  -22.5810   13.9290  -34.7360 N   0  3  0  0  0  0  0  0  0  0  0  0
  -23.6820    7.9870  -34.7350 H   0  0  0  0  0  0  0  0  0  0  0  0
  -26.3980    8.5810  -34.2110 H   0  0  0  0  0  0  0  0  0  0  0  0
  -24.5690    9.7090  -36.3790 H   0  0  0  0  0  0  0  0  0  0  0  0
  -26.1720   10.3200  -36.1140 H   0  0  0  0  0  0  0  0  0  0  0  0
  -25.6430   11.0720  -33.8640 H   0  0  0  0  0  0  0  0  0  0  0  0
  -24.0930   10.3040  -33.9250 H   0  0  0  0  0  0  0  0  0  0  0  0
  -23.7360   11.8320  -36.1040 H   0  0  0  0  0  0  0  0  0  0  0  0
  -25.0100   12.7880  -35.3980 H   0  0  0  0  0  0  0  0  0  0  0  0
  -23.6090   12.9200  -33.2490 H   0  0  0  0  0  0  0  0  0  0  0  0
  -22.3650   11.9970  -34.0760 H   0  0  0  0  0  0  0  0  0  0  0  0
  -23.2900   14.6670  -34.8820 H   0  0  0  0  0  0  0  0  0  0  0  0
  -21.8380   14.2360  -34.0760 H   0  0  0  0  0  0  0  0  0  0  0  0
  -22.0910   13.7390  -35.6350 H   0  0  0  0  0  0  0  0  0  0  0  0
  -29.0660   18.8320  -28.2070 N   0  0  0  0  0  0  0  0  0  0  0  0
  -27.7920   18.2440  -28.6020 C   0  0  0  0  0  0  0  0  0  0  0  0
  -27.9150   17.4420  -29.8910 C   0  0  0  0  0  0  0  0  0  0  0  0
  -26.9480   17.3500  -30.6560 O   0  0  0  0  0  0  0  0  0  0  0  0
  -27.3290   17.2030  -27.5490 C   0  0  0  0  0  0  0  0  0  0  0  0
  -27.4330   17.6420  -26.0790 C   0  0  0  0  0  0  0  0  0  0  0  0
  -26.5590   17.0270  -25.2730 N   0  0  0  0  0  0  0  0  0  0  0  0
  -28.2470   18.4660  -25.6930 O   0  0  0  0  0  0  0  0  0  0  0  0
  -29.5940   18.4210  -27.4630 H   0  0  0  0  0  0  0  0  0  0  0  0
  -27.0580   19.0420  -28.7250 H   0  0  0  0  0  0  0  0  0  0  0  0
  -27.9200   16.2890  -27.6190 H   0  0  0  0  0  0  0  0  0  0  0  0
  -26.2970   16.9110  -27.7500 H   0  0  0  0  0  0  0  0  0  0  0  0
  -25.9130   16.3520  -25.6270 H   0  0  0  0  0  0  0  0  0  0  0  0
  -26.5580   17.2340  -24.2950 H   0  0  0  0  0  0  0  0  0  0  0  0
  -29.0870   16.8690  -30.1550 N   0  0  0  0  0  0  0  0  0  0  0  0
  -29.2960   16.0020  -31.3070 C   0  0  0  0  0  0  0  0  0  0  0  0
  -29.9900   16.7970  -32.4060 C   0  0  0  0  0  0  0  0  0  0  0  0
  -31.1940   17.0700  -32.3260 O   0  0  0  0  0  0  0  0  0  0  0  0
  -30.1740   14.8010  -30.9070 C   0  0  0  0  0  0  0  0  0  0  0  0
  -29.4000   13.7590  -30.1430 C   0  0  0  0  0  0  0  0  0  0  0  0
  -29.2810   13.8370  -28.7600 C   0  0  0  0  0  0  0  0  0  0  0  0
  -28.8060   12.6910  -30.8110 C   0  0  0  0  0  0  0  0  0  0  0  0
  -28.5730   12.8730  -28.0550 C   0  0  0  0  0  0  0  0  0  0  0  0
  -28.1150   11.7130  -30.1080 C   0  0  0  0  0  0  0  0  0  0  0  0
  -27.9990   11.8040  -28.7280 C   0  0  0  0  0  0  0  0  0  0  0  0
  -27.3530   10.8140  -28.0180 O   0  0  0  0  0  0  0  0  0  0  0  0
  -29.8570   17.0340  -29.5370 H   0  0  0  0  0  0  0  0  0  0  0  0
  -28.3330   15.6490  -31.6810 H   0  0  0  0  0  0  0  0  0  0  0  0
  -31.0270   15.1330  -30.3120 H   0  0  0  0  0  0  0  0  0  0  0  0
  -30.5960   14.3220  -31.7930 H   0  0  0  0  0  0  0  0  0  0  0  0
  -29.7540   14.6470  -28.2260 H   0  0  0  0  0  0  0  0  0  0  0  0
  -28.8950   12.6080  -31.8850 H   0  0  0  0  0  0  0  0  0  0  0  0
  -28.4960   12.9310  -26.9800 H   0  0  0  0  0  0  0  0  0  0  0  0
  -27.6770   10.8750  -30.6300 H   0  0  0  0  0  0  0  0  0  0  0  0
  -27.1610   10.0820  -28.5920 H   0  0  0  0  0  0  0  0  0  0  0  0
  -29.2230   17.1680  -33.4290 N   0  0  0  0  0  0  0  0  0  0  0  0
  -29.6990   17.9780  -34.5430 C   0  0  0  0  0  0  0  0  0  0  0  0
  -30.0220   17.0630  -35.7140 C   0  0  0  0  0  0  0  0  0  0  0  0
  -29.2620   16.1360  -36.0250 O   0  0  0  0  0  0  0  0  0  0  0  0
  -28.6430   19.0330  -34.9340 C   0  0  0  0  0  0  0  0  0  0  0  0
  -29.1750   19.9890  -36.0170 C   0  0  0  0  0  0  0  0  0  0  0  0
  -28.1610   19.8370  -33.7160 C   0  0  0  0  0  0  0  0  0  0  0  0
  -28.2640   16.8910  -33.4500 H   0  0  0  0  0  0  0  0  0  0  0  0
  -30.6160   18.4830  -34.2320 H   0  0  0  0  0  0  0  0  0  0  0  0
  -27.7730   18.5150  -35.3440 H   0  0  0  0  0  0  0  0  0  0  0  0
  -28.4240   20.7300  -36.2920 H   0  0  0  0  0  0  0  0  0  0  0  0
  -29.4500   19.4570  -36.9280 H   0  0  0  0  0  0  0  0  0  0  0  0
  -30.0600   20.5240  -35.6710 H   0  0  0  0  0  0  0  0  0  0  0  0
  -27.4340   20.5930  -34.0130 H   0  0  0  0  0  0  0  0  0  0  0  0
  -28.9890   20.3490  -33.2270 H   0  0  0  0  0  0  0  0  0  0  0  0
  -27.6780   19.2020  -32.9730 H   0  0  0  0  0  0  0  0  0  0  0  0
  -28.0350   14.4490  -38.2670 N   0  0  0  0  0  0  0  0  0  0  0  0
  -26.9960   15.0110  -39.1200 C   0  0  0  0  0  0  0  0  0  0  0  0
  -25.6550   14.3640  -38.7960 C   0  0  0  0  0  0  0  0  0  0  0  0
  -25.1720   14.4510  -37.6620 O   0  0  0  0  0  0  0  0  0  0  0  0
  -26.9320   16.5340  -38.8860 C   0  0  0  0  0  0  0  0  0  0  0  0
  -26.0580   17.2320  -39.9450 C   0  0  0  0  0  0  0  0  0  0  0  0
  -28.2600   17.0360  -38.8970 O   0  0  0  0  0  0  0  0  0  0  0  0
  -28.4350   15.0420  -37.5690 H   0  0  0  0  0  0  0  0  0  0  0  0
  -27.2730   14.7980  -40.1540 H   0  0  0  0  0  0  0  0  0  0  0  0
  -26.5090   16.7130  -37.8910 H   0  0  0  0  0  0  0  0  0  0  0  0
  -28.2610   17.9880  -38.8590 H   0  0  0  0  0  0  0  0  0  0  0  0
  -25.9340   18.2950  -39.7370 H   0  0  0  0  0  0  0  0  0  0  0  0
  -25.0610   16.7940  -39.9790 H   0  0  0  0  0  0  0  0  0  0  0  0
  -26.4890   17.1340  -40.9420 H   0  0  0  0  0  0  0  0  0  0  0  0
  -21.4560   13.5980  -39.9380 N   0  0  0  0  0  0  0  0  0  0  0  0
  -20.3070   14.2670  -40.5270 C   0  0  0  0  0  0  0  0  0  0  0  0
  -19.1390   13.2970  -40.6030 C   0  0  0  0  0  0  0  0  0  0  0  0
  -18.9320   12.4880  -39.6940 O   0  0  0  0  0  0  0  0  0  0  0  0
  -19.8650   15.4240  -39.6060 C   0  0  0  0  0  0  0  0  0  0  0  0
  -21.0220   16.3260  -39.2380 C   0  0  0  0  0  0  0  0  0  0  0  0
  -21.8090   16.2570  -38.0770 C   0  0  0  0  0  0  0  0  0  0  0  0
  -21.4710   17.3490  -39.9960 N   0  0  0  0  0  0  0  0  0  0  0  0
  -22.5020   17.8840  -39.3180 C   0  0  0  0  0  0  0  0  0  0  0  0
  -22.7240   17.2500  -38.1510 N   0  0  0  0  0  0  0  0  0  0  0  0
  -21.3090   12.9530  -39.1860 H   0  0  0  0  0  0  0  0  0  0  0  0
  -20.5620   14.6180  -41.5280 H   0  0  0  0  0  0  0  0  0  0  0  0
  -19.4510   15.0340  -38.6730 H   0  0  0  0  0  0  0  0  0  0  0  0
  -19.0820   16.0180  -40.0780 H   0  0  0  0  0  0  0  0  0  0  0  0
  -21.1330   17.6290  -40.8710 H   0  0  0  0  0  0  0  0  0  0  0  0
  -21.6980   15.5280  -37.2890 H   0  0  0  0  0  0  0  0  0  0  0  0
  -23.0980   18.7150  -39.6690 H   0  0  0  0  0  0  0  0  0  0  0  0
  -18.3910   13.3730  -41.6990 N   0  0  0  0  0  0  0  0  0  0  0  0
  -17.1420   12.6370  -41.7980 C   0  0  0  0  0  0  0  0  0  0  0  0
  -16.0930   13.2560  -40.8810 C   0  0  0  0  0  0  0  0  0  0  0  0
  -16.1420   14.4450  -40.5550 O   0  0  0  0  0  0  0  0  0  0  0  0
  -16.6460   12.5950  -43.2570 C   0  0  0  0  0  0  0  0  0  0  0  0
  -16.4300   13.9840  -43.8820 C   0  0  0  0  0  0  0  0  0  0  0  0
  -15.4740   11.8100  -43.3690 O   0  0  0  0  0  0  0  0  0  0  0  0
  -18.7120   13.9620  -42.4370 H   0  0  0  0  0  0  0  0  0  0  0  0
  -17.3410   11.6180  -41.4600 H   0  0  0  0  0  0  0  0  0  0  0  0
  -17.4090   12.0840  -43.8480 H   0  0  0  0  0  0  0  0  0  0  0  0
  -14.7910   12.2000  -42.8370 H   0  0  0  0  0  0  0  0  0  0  0  0
  -16.0400   13.8920  -44.8960 H   0  0  0  0  0  0  0  0  0  0  0  0
  -17.3660   14.5390  -43.9400 H   0  0  0  0  0  0  0  0  0  0  0  0
  -15.7270   14.5890  -43.3090 H   0  0  0  0  0  0  0  0  0  0  0  0
  -15.1340   12.4340  -40.4660 N   0  0  0  0  0  0  0  0  0  0  0  0
  -14.1090   12.8260  -39.5050 C   0  0  0  0  0  0  0  0  0  0  0  0
  -12.7560   12.7540  -40.1950 C   0  0  0  0  0  0  0  0  0  0  0  0
  -12.2650   11.6600  -40.5020 O   0  0  0  0  0  0  0  0  0  0  0  0
  -14.2010   11.8780  -38.2860 C   0  0  0  0  0  0  0  0  0  0  0  0
  -13.1050   12.1420  -37.2420 C   0  0  0  0  0  0  0  0  0  0  0  0
  -15.5820   11.9690  -37.6140 C   0  0  0  0  0  0  0  0  0  0  0  0
  -15.1320   11.5060  -40.8360 H   0  0  0  0  0  0  0  0  0  0  0  0
  -14.2820   13.8550  -39.1820 H   0  0  0  0  0  0  0  0  0  0  0  0
  -14.0790   10.8530  -38.6380 H   0  0  0  0  0  0  0  0  0  0  0  0
  -13.1660   11.4260  -36.4210 H   0  0  0  0  0  0  0  0  0  0  0  0
  -12.1040   12.0650  -37.6650 H   0  0  0  0  0  0  0  0  0  0  0  0
  -13.2200   13.1390  -36.8180 H   0  0  0  0  0  0  0  0  0  0  0  0
  -15.6290   11.3410  -36.7260 H   0  0  0  0  0  0  0  0  0  0  0  0
  -15.8010   12.9910  -37.3010 H   0  0  0  0  0  0  0  0  0  0  0  0
  -16.3830   11.6480  -38.2800 H   0  0  0  0  0  0  0  0  0  0  0  0
  -12.1460   13.9150  -40.4280 N   0  0  0  0  0  0  0  0  0  0  0  0
  -10.8340   13.9660  -41.0420 C   0  0  0  0  0  0  0  0  0  0  0  0
   -9.7860   13.3880  -40.0960 C   0  0  0  0  0  0  0  0  0  0  0  0
   -9.9920   13.3300  -38.8810 O   0  0  0  0  0  0  0  0  0  0  0  0
  -10.4810   15.4350  -41.3380 C   0  0  0  0  0  0  0  0  0  0  0  0
  -11.4500   16.1250  -42.3070 C   0  0  0  0  0  0  0  0  0  0  0  0
  -11.4320   15.3610  -43.9430 S   0  0  0  0  0  0  0  0  0  0  0  0
  -12.8330   14.2370  -43.7870 C   0  0  0  0  0  0  0  0  0  0  0  0
  -12.5940   14.7700  -40.1670 H   0  0  0  0  0  0  0  0  0  0  0  0
  -10.9080   13.3900  -41.9600 H   0  0  0  0  0  0  0  0  0  0  0  0
  -10.4580   15.9980  -40.4040 H   0  0  0  0  0  0  0  0  0  0  0  0
   -9.4740   15.5000  -41.7520 H   0  0  0  0  0  0  0  0  0  0  0  0
  -12.4650   16.1550  -41.9110 H   0  0  0  0  0  0  0  0  0  0  0  0
  -11.1600   17.1690  -42.4250 H   0  0  0  0  0  0  0  0  0  0  0  0
  -13.4800   14.3380  -44.6580 H   0  0  0  0  0  0  0  0  0  0  0  0
  -12.4820   13.2060  -43.7570 H   0  0  0  0  0  0  0  0  0  0  0  0
  -13.4250   14.4530  -42.8990 H   0  0  0  0  0  0  0  0  0  0  0  0
  -14.5160   32.9280  -14.6730 N   0  0  0  0  0  0  0  0  0  0  0  0
  -15.8020   32.4460  -14.1440 C   0  0  0  0  0  0  0  0  0  0  0  0
  -16.9760   33.1720  -14.7790 C   0  0  0  0  0  0  0  0  0  0  0  0
  -16.7810   34.0620  -15.6200 O   0  0  0  0  0  0  0  0  0  0  0  0
  -15.6680   32.6460  -12.6270 C   0  0  0  0  0  0  0  0  0  0  0  0
  -14.1640   32.7170  -12.3830 C   0  0  0  0  0  0  0  0  0  0  0  0
  -13.5970   33.3870  -13.6300 C   0  0  0  0  0  0  0  0  0  0  0  0
  -15.8460   31.3840  -14.3790 H   0  0  0  0  0  0  0  0  0  0  0  0
  -16.1460   33.5560  -12.2740 H   0  0  0  0  0  0  0  0  0  0  0  0
  -16.1220   31.8330  -12.0730 H   0  0  0  0  0  0  0  0  0  0  0  0
  -13.8950   33.2290  -11.4630 H   0  0  0  0  0  0  0  0  0  0  0  0
  -13.7710   31.7010  -12.3170 H   0  0  0  0  0  0  0  0  0  0  0  0
  -13.6410   34.4700  -13.5730 H   0  0  0  0  0  0  0  0  0  0  0  0
  -12.5790   33.0450  -13.8230 H   0  0  0  0  0  0  0  0  0  0  0  0
  -18.2140   32.8060  -14.4330 N   0  0  0  0  0  0  0  0  0  0  0  0
  -19.3660   33.5600  -14.9390 C   0  0  0  0  0  0  0  0  0  0  0  0
  -19.2820   35.0260  -14.5480 C   0  0  0  0  0  0  0  0  0  0  0  0
  -18.5480   35.4060  -13.6340 O   0  0  0  0  0  0  0  0  0  0  0  0
  -20.5390   32.8510  -14.2440 C   0  0  0  0  0  0  0  0  0  0  0  0
  -20.0230   31.4460  -13.9300 C   0  0  0  0  0  0  0  0  0  0  0  0
  -18.5430   31.6490  -13.6180 C   0  0  0  0  0  0  0  0  0  0  0  0
  -19.3810   33.4400  -16.0220 H   0  0  0  0  0  0  0  0  0  0  0  0
  -20.7710   33.3410  -13.2970 H   0  0  0  0  0  0  0  0  0  0  0  0
  -21.4490   32.8460  -14.8430 H   0  0  0  0  0  0  0  0  0  0  0  0
  -20.5510   30.9540  -13.1160 H   0  0  0  0  0  0  0  0  0  0  0  0
  -20.1250   30.8120  -14.8110 H   0  0  0  0  0  0  0  0  0  0  0  0
  -18.3580   31.9000  -12.5730 H   0  0  0  0  0  0  0  0  0  0  0  0
  -17.9380   30.8020  -13.9370 H   0  0  0  0  0  0  0  0  0  0  0  0
  -20.0610   35.8550  -15.2340 N   0  0  0  0  0  0  0  0  0  0  0  0
  -19.8990   37.2840  -15.0300 C   0  0  0  0  0  0  0  0  0  0  0  0
  -18.5310   37.6500  -15.5650 C   0  0  0  0  0  0  0  0  0  0  0  0
  -18.2060   37.3500  -16.7190 O   0  0  0  0  0  0  0  0  0  0  0  0
  -20.7300   35.5050  -15.8830 H   0  0  0  0  0  0  0  0  0  0  0  0
  -20.6740   37.8010  -15.5940 H   0  0  0  0  0  0  0  0  0  0  0  0
  -19.9870   37.5130  -13.9660 H   0  0  0  0  0  0  0  0  0  0  0  0
  -16.4050   38.7060  -17.3760 N   0  0  0  0  0  0  0  0  0  0  0  0
  -16.1370   39.4150  -18.6150 C   0  0  0  0  0  0  0  0  0  0  0  0
  -15.0390   38.8100  -19.4650 C   0  0  0  0  0  0  0  0  0  0  0  0
  -13.9870   39.4280  -19.6550 O   0  0  0  0  0  0  0  0  0  0  0  0
  -16.9400   37.9280  -17.6350 H   0  0  0  0  0  0  0  0  0  0  0  0
  -17.0670   39.4100  -19.1820 H   0  0  0  0  0  0  0  0  0  0  0  0
  -15.8910   40.4560  -18.3960 H   0  0  0  0  0  0  0  0  0  0  0  0
  -15.2680   37.5990  -19.9840 N   0  0  0  0  0  0  0  0  0  0  0  0
  -14.2640   36.9680  -20.8370 C   0  0  0  0  0  0  0  0  0  0  0  0
  -14.1820   37.6610  -22.1900 C   0  0  0  0  0  0  0  0  0  0  0  0
  -13.0850   37.9050  -22.7100 O   0  0  0  0  0  0  0  0  0  0  0  0
  -14.5980   35.4790  -21.0820 C   0  0  0  0  0  0  0  0  0  0  0  0
  -14.1390   34.5310  -19.9620 C   0  0  0  0  0  0  0  0  0  0  0  0
  -14.0850   33.0650  -20.4350 C   0  0  0  0  0  0  0  0  0  0  0  0
  -15.4050   32.2990  -20.3650 C   0  0  0  0  0  0  0  0  0  0  0  0
  -15.5170   31.5640  -19.1050 N   0  3  0  0  0  0  0  0  0  0  0  0
  -16.1260   37.1300  -19.7890 H   0  0  0  0  0  0  0  0  0  0  0  0
  -13.2890   37.0670  -20.3540 H   0  0  0  0  0  0  0  0  0  0  0  0
  -15.6630   35.3520  -21.2790 H   0  0  0  0  0  0  0  0  0  0  0  0
  -14.0970   35.1530  -21.9980 H   0  0  0  0  0  0  0  0  0  0  0  0
  -13.1280   34.8200  -19.6700 H   0  0  0  0  0  0  0  0  0  0  0  0
  -14.7560   34.6420  -19.0700 H   0  0  0  0  0  0  0  0  0  0  0  0
  -13.7510   33.0380  -21.4720 H   0  0  0  0  0  0  0  0  0  0  0  0
  -13.3270   32.5260  -19.8640 H   0  0  0  0  0  0  0  0  0  0  0  0
  -16.2650   32.9600  -20.4820 H   0  0  0  0  0  0  0  0  0  0  0  0
  -15.4500   31.5770  -21.1830 H   0  0  0  0  0  0  0  0  0  0  0  0
  -14.6210   31.0790  -18.8860 H   0  0  0  0  0  0  0  0  0  0  0  0
  -15.6900   32.2270  -18.3230 H   0  0  0  0  0  0  0  0  0  0  0  0
  -16.2880   30.8710  -19.1420 H   0  0  0  0  0  0  0  0  0  0  0  0
  -15.3340   37.9770  -22.7800 N   0  0  0  0  0  0  0  0  0  0  0  0
  -15.3330   38.6070  -24.0940 C   0  0  0  0  0  0  0  0  0  0  0  0
  -14.7260   40.0010  -24.0340 C   0  0  0  0  0  0  0  0  0  0  0  0
  -13.9820   40.3950  -24.9390 O   0  0  0  0  0  0  0  0  0  0  0  0
  -16.7670   38.6920  -24.6470 C   0  0  0  0  0  0  0  0  0  0  0  0
  -17.5190   37.4950  -24.5650 O   0  0  0  0  0  0  0  0  0  0  0  0
  -16.1950   37.7600  -22.3260 H   0  0  0  0  0  0  0  0  0  0  0  0
  -14.7110   37.9890  -24.7470 H   0  0  0  0  0  0  0  0  0  0  0  0
  -17.3270   39.4310  -24.0730 H   0  0  0  0  0  0  0  0  0  0  0  0
  -16.7560   39.0380  -25.6850 H   0  0  0  0  0  0  0  0  0  0  0  0
  -16.9890   36.7540  -24.8640 H   0  0  0  0  0  0  0  0  0  0  0  0
  -15.0100   40.7470  -22.9640 N   0  0  0  0  0  0  0  0  0  0  0  0
  -14.3950   42.0590  -22.7820 C   0  0  0  0  0  0  0  0  0  0  0  0
  -12.8720   41.9540  -22.7490 C   0  0  0  0  0  0  0  0  0  0  0  0
  -12.1720   42.8020  -23.3140 O   0  0  0  0  0  0  0  0  0  0  0  0
  -14.9460   42.5350  -21.4270 C   0  0  0  0  0  0  0  0  0  0  0  0
  -14.6120   43.9760  -21.1520 C   0  0  0  0  0  0  0  0  0  0  0  0
  -15.4290   45.0960  -21.3660 C   0  0  0  0  0  0  0  0  0  0  0  0
  -13.4850   44.3770  -20.5350 N   0  0  0  0  0  0  0  0  0  0  0  0
  -13.5900   45.7120  -20.4280 C   0  0  0  0  0  0  0  0  0  0  0  0
  -14.7520   46.1740  -20.9180 N   0  0  0  0  0  0  0  0  0  0  0  0
  -15.6290   40.3840  -22.2700 H   0  0  0  0  0  0  0  0  0  0  0  0
  -14.7060   42.7030  -23.6060 H   0  0  0  0  0  0  0  0  0  0  0  0
  -16.0310   42.4350  -21.4100 H   0  0  0  0  0  0  0  0  0  0  0  0
  -14.5650   41.9180  -20.6120 H   0  0  0  0  0  0  0  0  0  0  0  0
  -16.4110   45.0980  -21.8130 H   0  0  0  0  0  0  0  0  0  0  0  0
  -12.8140   46.3430  -20.0320 H   0  0  0  0  0  0  0  0  0  0  0  0
  -15.0330   47.1150  -20.9560 H   0  0  0  0  0  0  0  0  0  0  0  0
  -15.9320   26.8780  -30.6030 N   0  0  0  0  0  0  0  0  0  0  0  0
  -16.5750   25.7150  -31.2090 C   0  0  0  0  0  0  0  0  0  0  0  0
  -17.9050   26.0720  -31.8630 C   0  0  0  0  0  0  0  0  0  0  0  0
  -18.1280   25.7580  -33.0360 O   0  0  0  0  0  0  0  0  0  0  0  0
  -16.7490   24.6230  -30.1430 C   0  0  0  0  0  0  0  0  0  0  0  0
  -15.1710   24.0670  -29.4500 S   0  0  0  0  0  0  0  0  0  0  0  0
  -15.9250   27.0000  -29.6100 H   0  0  0  0  0  0  0  0  0  0  0  0
  -15.9070   25.3330  -31.9850 H   0  0  0  0  0  0  0  0  0  0  0  0
  -17.3720   24.9900  -29.3270 H   0  0  0  0  0  0  0  0  0  0  0  0
  -17.2570   23.7550  -30.5640 H   0  0  0  0  0  0  0  0  0  0  0  0
  -14.7000   23.0480  -30.1850 H   0  0  0  0  0  0  0  0  0  0  0  0
  -18.8000   26.7150  -31.1190 N   0  0  0  0  0  0  0  0  0  0  0  0
  -20.1350   27.0260  -31.6070 C   0  0  0  0  0  0  0  0  0  0  0  0
  -20.1570   28.3760  -32.3060 C   0  0  0  0  0  0  0  0  0  0  0  0
  -19.3480   29.2610  -32.0170 O   0  0  0  0  0  0  0  0  0  0  0  0
  -21.1340   26.9980  -30.4390 C   0  0  0  0  0  0  0  0  0  0  0  0
  -20.8180   27.9140  -29.4070 O   0  0  0  0  0  0  0  0  0  0  0  0
  -18.5270   26.9870  -30.1970 H   0  0  0  0  0  0  0  0  0  0  0  0
  -20.4180   26.2610  -32.3320 H   0  0  0  0  0  0  0  0  0  0  0  0
  -22.1370   27.2430  -30.7950 H   0  0  0  0  0  0  0  0  0  0  0  0
  -21.2050   25.9880  -30.0220 H   0  0  0  0  0  0  0  0  0  0  0  0
  -19.9260   27.7580  -29.1100 H   0  0  0  0  0  0  0  0  0  0  0  0
  -21.1140   28.5330  -33.2240 N   0  0  0  0  0  0  0  0  0  0  0  0
  -21.3130   29.8290  -33.8620 C   0  0  0  0  0  0  0  0  0  0  0  0
  -21.7390   30.8820  -32.8480 C   0  0  0  0  0  0  0  0  0  0  0  0
  -21.3240   32.0420  -32.9370 O   0  0  0  0  0  0  0  0  0  0  0  0
  -22.3280   29.7540  -35.0150 C   0  0  0  0  0  0  0  0  0  0  0  0
  -21.7050   29.0430  -36.1950 C   0  0  0  0  0  0  0  0  0  0  0  0
  -21.9160   27.7180  -36.6070 C   0  0  0  0  0  0  0  0  0  0  0  0
  -20.7940   29.6060  -37.0250 N   0  0  0  0  0  0  0  0  0  0  0  0
  -20.4730   28.6510  -37.9180 C   0  0  0  0  0  0  0  0  0  0  0  0
  -21.1300   27.5020  -37.6850 N   0  0  0  0  0  0  0  0  0  0  0  0
  -21.6980   27.7620  -33.4740 H   0  0  0  0  0  0  0  0  0  0  0  0
  -20.3450   30.1510  -34.2500 H   0  0  0  0  0  0  0  0  0  0  0  0
  -23.2390   29.2420  -34.7070 H   0  0  0  0  0  0  0  0  0  0  0  0
  -22.6220   30.7540  -35.3420 H   0  0  0  0  0  0  0  0  0  0  0  0
  -22.5880   27.0060  -36.1500 H   0  0  0  0  0  0  0  0  0  0  0  0
  -19.7560   28.7750  -38.7190 H   0  0  0  0  0  0  0  0  0  0  0  0
  -21.0560   26.6740  -38.2050 H   0  0  0  0  0  0  0  0  0  0  0  0
  -22.5620   30.4950  -31.8680 N   0  0  0  0  0  0  0  0  0  0  0  0
  -23.0350   31.4570  -30.8780 C   0  0  0  0  0  0  0  0  0  0  0  0
  -21.8770   32.0410  -30.0750 C   0  0  0  0  0  0  0  0  0  0  0  0
  -21.8810   33.2330  -29.7420 O   0  0  0  0  0  0  0  0  0  0  0  0
  -24.0360   30.7630  -29.9490 C   0  0  0  0  0  0  0  0  0  0  0  0
  -22.8540   29.5430  -31.8170 H   0  0  0  0  0  0  0  0  0  0  0  0
  -23.5220   32.2670  -31.4250 H   0  0  0  0  0  0  0  0  0  0  0  0
  -24.4370   31.4570  -29.2100 H   0  0  0  0  0  0  0  0  0  0  0  0
  -24.8760   30.3640  -30.5180 H   0  0  0  0  0  0  0  0  0  0  0  0
  -23.5720   29.9320  -29.4150 H   0  0  0  0  0  0  0  0  0  0  0  0
  -20.8740   31.2190  -29.7580 N   0  0  0  0  0  0  0  0  0  0  0  0
  -19.7070   31.7290  -29.0480 C   0  0  0  0  0  0  0  0  0  0  0  0
  -18.9140   32.6960  -29.9180 C   0  0  0  0  0  0  0  0  0  0  0  0
  -18.4110   33.7130  -29.4250 O   0  0  0  0  0  0  0  0  0  0  0  0
  -18.8130   30.5650  -28.6050 C   0  0  0  0  0  0  0  0  0  0  0  0
  -20.9180   30.2540  -30.0140 H   0  0  0  0  0  0  0  0  0  0  0  0
  -20.0640   32.2730  -28.1720 H   0  0  0  0  0  0  0  0  0  0  0  0
  -17.9160   30.9240  -28.0990 H   0  0  0  0  0  0  0  0  0  0  0  0
  -19.3430   29.9240  -27.9030 H   0  0  0  0  0  0  0  0  0  0  0  0
  -18.4970   29.9610  -29.4560 H   0  0  0  0  0  0  0  0  0  0  0  0
  -20.8390   36.0080  -30.0830 N   0  0  0  0  0  0  0  0  0  0  0  0
  -20.7390   36.9070  -28.9370 C   0  0  0  0  0  0  0  0  0  0  0  0
  -19.4610   37.7340  -29.0010 C   0  0  0  0  0  0  0  0  0  0  0  0
  -19.4510   38.9090  -28.6130 O   0  0  0  0  0  0  0  0  0  0  0  0
  -20.7500   36.0510  -27.6650 C   0  0  0  0  0  0  0  0  0  0  0  0
  -20.7330   35.0190  -29.9760 H   0  0  0  0  0  0  0  0  0  0  0  0
  -21.6050   37.5690  -28.9620 H   0  0  0  0  0  0  0  0  0  0  0  0
  -20.6960   36.6630  -26.7650 H   0  0  0  0  0  0  0  0  0  0  0  0
  -21.6620   35.4550  -27.6110 H   0  0  0  0  0  0  0  0  0  0  0  0
  -19.9090   35.3550  -27.6510 H   0  0  0  0  0  0  0  0  0  0  0  0
  -19.0950   41.8790  -29.1740 N   0  0  0  0  0  0  0  0  0  0  0  0
  -18.1640   42.6420  -28.3520 C   0  0  0  0  0  0  0  0  0  0  0  0
  -17.1900   43.4290  -29.2220 C   0  0  0  0  0  0  0  0  0  0  0  0
  -16.8870   44.5900  -28.9290 O   0  0  0  0  0  0  0  0  0  0  0  0
  -17.5170   41.7330  -27.2880 C   0  0  0  0  0  0  0  0  0  0  0  0
  -18.0970   41.9370  -25.8740 C   0  0  0  0  0  0  0  0  0  0  0  0
  -19.6130   41.7130  -25.7170 C   0  0  0  0  0  0  0  0  0  0  0  0
  -20.0920   40.2700  -25.9490 C   0  0  0  0  0  0  0  0  0  0  0  0
  -20.9810   40.1650  -27.1060 N   0  3  0  0  0  0  0  0  0  0  0  0
  -19.0510   40.8810  -29.2380 H   0  0  0  0  0  0  0  0  0  0  0  0
  -18.7490   43.4100  -27.8420 H   0  0  0  0  0  0  0  0  0  0  0  0
  -17.5760   40.6870  -27.5900 H   0  0  0  0  0  0  0  0  0  0  0  0
  -16.4560   41.9550  -27.2050 H   0  0  0  0  0  0  0  0  0  0  0  0
  -17.5570   41.3070  -25.1710 H   0  0  0  0  0  0  0  0  0  0  0  0
  -17.8750   42.9600  -25.5650 H   0  0  0  0  0  0  0  0  0  0  0  0
  -19.8830   41.9970  -24.6990 H   0  0  0  0  0  0  0  0  0  0  0  0
  -20.1620   42.4060  -26.3550 H   0  0  0  0  0  0  0  0  0  0  0  0
  -19.2530   39.5830  -26.0910 H   0  0  0  0  0  0  0  0  0  0  0  0
  -20.6440   39.9100  -25.0770 H   0  0  0  0  0  0  0  0  0  0  0  0
  -20.4560   40.4280  -27.9680 H   0  0  0  0  0  0  0  0  0  0  0  0
  -21.2920   39.1790  -27.2270 H   0  0  0  0  0  0  0  0  0  0  0  0
  -21.8070   40.7880  -26.9960 H   0  0  0  0  0  0  0  0  0  0  0  0
  -14.2560   26.7060  -35.1760 N   0  0  0  0  0  0  0  0  0  0  0  0
  -13.1660   25.7580  -35.3880 C   0  0  0  0  0  0  0  0  0  0  0  0
  -13.4100   24.9340  -36.6440 C   0  0  0  0  0  0  0  0  0  0  0  0
  -12.4880   24.7040  -37.4370 O   0  0  0  0  0  0  0  0  0  0  0  0
  -12.9520   24.8750  -34.1380 C   0  0  0  0  0  0  0  0  0  0  0  0
  -11.9040   23.7700  -34.3670 C   0  0  0  0  0  0  0  0  0  0  0  0
  -12.5300   25.7250  -32.9300 C   0  0  0  0  0  0  0  0  0  0  0  0
  -14.7840   26.6620  -34.3270 H   0  0  0  0  0  0  0  0  0  0  0  0
  -12.2650   26.3460  -35.5460 H   0  0  0  0  0  0  0  0  0  0  0  0
  -13.8980   24.3900  -33.8900 H   0  0  0  0  0  0  0  0  0  0  0  0
  -11.7210   23.2100  -33.4500 H   0  0  0  0  0  0  0  0  0  0  0  0
  -12.2300   23.0510  -35.1180 H   0  0  0  0  0  0  0  0  0  0  0  0
  -10.9530   24.1880  -34.6950 H   0  0  0  0  0  0  0  0  0  0  0  0
  -12.4370   25.1050  -32.0400 H   0  0  0  0  0  0  0  0  0  0  0  0
  -11.5680   26.2090  -33.1030 H   0  0  0  0  0  0  0  0  0  0  0  0
  -13.2520   26.5060  -32.7070 H   0  0  0  0  0  0  0  0  0  0  0  0
  -14.6540   24.4860  -36.8560 N   0  0  0  0  0  0  0  0  0  0  0  0
  -14.9450   23.6000  -37.9820 C   0  0  0  0  0  0  0  0  0  0  0  0
  -14.7680   24.2950  -39.3240 C   0  0  0  0  0  0  0  0  0  0  0  0
  -14.5500   23.6200  -40.3360 O   0  0  0  0  0  0  0  0  0  0  0  0
  -16.3850   23.0740  -37.8290 C   0  0  0  0  0  0  0  0  0  0  0  0
  -17.3990   24.2220  -37.6520 C   0  0  0  0  0  0  0  0  0  0  0  0
  -17.8590   24.3610  -36.3980 N   0  0  0  0  0  0  0  0  0  0  0  0
  -17.7370   24.9330  -38.5880 O   0  0  0  0  0  0  0  0  0  0  0  0
  -15.3760   24.7610  -36.2220 H   0  0  0  0  0  0  0  0  0  0  0  0
  -14.2380   22.7690  -37.9350 H   0  0  0  0  0  0  0  0  0  0  0  0
  -16.6790   22.4790  -38.6940 H   0  0  0  0  0  0  0  0  0  0  0  0
  -16.4450   22.4170  -36.9610 H   0  0  0  0  0  0  0  0  0  0  0  0
  -17.5630   23.7580  -35.6580 H   0  0  0  0  0  0  0  0  0  0  0  0
  -18.5140   25.0900  -36.1980 H   0  0  0  0  0  0  0  0  0  0  0  0
  -11.9260   30.7250  -27.4250 N   0  0  0  0  0  0  0  0  0  0  0  0
  -12.8490   31.0510  -26.3490 C   0  0  0  0  0  0  0  0  0  0  0  0
  -13.7420   29.8580  -26.0280 C   0  0  0  0  0  0  0  0  0  0  0  0
  -13.8810   28.9260  -26.8240 O   0  0  0  0  0  0  0  0  0  0  0  0
  -13.6590   32.3600  -26.5470 C   0  0  0  0  0  0  0  0  0  0  0  0
  -14.3730   32.8870  -25.2520 C   0  0  0  0  0  0  0  0  0  0  0  0
  -13.8670   32.7080  -24.1410 O   0  0  0  0  0  0  0  0  0  0  0  0
  -15.4460   33.4790  -25.3560 O   0  5  0  0  0  0  0  0  0  0  0  0
  -12.2440   30.8290  -28.3650 H   0  0  0  0  0  0  0  0  0  0  0  0
  -12.2410   31.2140  -25.4580 H   0  0  0  0  0  0  0  0  0  0  0  0
  -12.9910   33.1520  -26.8840 H   0  0  0  0  0  0  0  0  0  0  0  0
  -14.4060   32.2240  -27.3280 H   0  0  0  0  0  0  0  0  0  0  0  0
  -14.3460   29.8980  -24.8380 N   0  0  0  0  0  0  0  0  0  0  0  0
  -15.2170   28.8240  -24.3500 C   0  0  0  0  0  0  0  0  0  0  0  0
  -14.4940   27.4770  -24.3960 C   0  0  0  0  0  0  0  0  0  0  0  0
  -15.0080   26.4790  -24.9050 O   0  0  0  0  0  0  0  0  0  0  0  0
  -16.5770   28.8430  -25.0670 C   0  0  0  0  0  0  0  0  0  0  0  0
  -17.6310   28.0090  -24.3180 C   0  0  0  0  0  0  0  0  0  0  0  0
  -19.0490   28.2460  -24.8470 C   0  0  0  0  0  0  0  0  0  0  0  0
  -19.9390   28.6920  -24.1910 O   0  0  0  0  0  0  0  0  0  0  0  0
  -19.1840   27.8850  -26.1370 O   0  5  0  0  0  0  0  0  0  0  0  0
  -14.1790   30.7240  -24.2940 H   0  0  0  0  0  0  0  0  0  0  0  0
  -15.3660   29.0690  -23.3000 H   0  0  0  0  0  0  0  0  0  0  0  0
  -16.9130   29.8800  -25.1280 H   0  0  0  0  0  0  0  0  0  0  0  0
  -16.4720   28.4980  -26.0970 H   0  0  0  0  0  0  0  0  0  0  0  0
  -17.4080   26.9480  -24.3790 H   0  0  0  0  0  0  0  0  0  0  0  0
  -17.6330   28.2700  -23.2600 H   0  0  0  0  0  0  0  0  0  0  0  0
  -20.0290   28.1460  -26.4780 H   0  0  0  0  0  0  0  0  0  0  0  0
  -15.8770   23.8490  -23.6080 N   0  0  0  0  0  0  0  0  0  0  0  0
  -16.7140   23.1750  -24.5900 C   0  0  0  0  0  0  0  0  0  0  0  0
  -15.9120   22.4460  -25.6570 C   0  0  0  0  0  0  0  0  0  0  0  0
  -16.4940   21.6750  -26.4250 O   0  0  0  0  0  0  0  0  0  0  0  0
  -17.6550   24.1910  -25.2640 C   0  0  0  0  0  0  0  0  0  0  0  0
  -18.8760   24.5360  -24.4040 C   0  0  0  0  0  0  0  0  0  0  0  0
  -20.0100   23.1360  -24.3210 S   0  0  0  0  0  0  0  0  0  0  0  0
  -21.1560   23.7710  -23.0870 C   0  0  0  0  0  0  0  0  0  0  0  0
  -15.7890   24.8440  -23.6620 H   0  0  0  0  0  0  0  0  0  0  0  0
  -17.3020   22.4270  -24.0600 H   0  0  0  0  0  0  0  0  0  0  0  0
  -17.0960   25.0900  -25.5210 H   0  0  0  0  0  0  0  0  0  0  0  0
  -18.0290   23.8020  -26.2140 H   0  0  0  0  0  0  0  0  0  0  0  0
  -18.5730   24.8220  -23.3970 H   0  0  0  0  0  0  0  0  0  0  0  0
  -19.4130   25.3890  -24.8180 H   0  0  0  0  0  0  0  0  0  0  0  0
  -21.8640   22.9980  -22.7890 H   0  0  0  0  0  0  0  0  0  0  0  0
  -20.6050   24.0910  -22.2050 H   0  0  0  0  0  0  0  0  0  0  0  0
  -21.6930   24.6370  -23.4750 H   0  0  0  0  0  0  0  0  0  0  0  0
  -13.2350   19.7940  -27.4240 N   0  0  0  0  0  0  0  0  0  0  0  0
  -12.6310   18.4790  -27.2740 C   0  0  0  0  0  0  0  0  0  0  0  0
  -11.2080   18.5090  -27.8160 C   0  0  0  0  0  0  0  0  0  0  0  0
  -10.7680   19.4850  -28.4340 O   0  0  0  0  0  0  0  0  0  0  0  0
  -13.4780   17.3910  -27.9760 C   0  0  0  0  0  0  0  0  0  0  0  0
  -14.9940   17.6030  -27.8250 C   0  0  0  0  0  0  0  0  0  0  0  0
  -13.1390   17.2200  -29.3340 O   0  0  0  0  0  0  0  0  0  0  0  0
  -13.5110   20.1050  -28.3350 H   0  0  0  0  0  0  0  0  0  0  0  0
  -12.5730   18.2460  -26.2110 H   0  0  0  0  0  0  0  0  0  0  0  0
  -13.2350   16.4390  -27.5050 H   0  0  0  0  0  0  0  0  0  0  0  0
  -13.3040   18.0510  -29.7850 H   0  0  0  0  0  0  0  0  0  0  0  0
  -15.5440   16.7660  -28.2540 H   0  0  0  0  0  0  0  0  0  0  0  0
  -15.2770   17.6880  -26.7770 H   0  0  0  0  0  0  0  0  0  0  0  0
  -15.3370   18.5070  -28.3310 H   0  0  0  0  0  0  0  0  0  0  0  0
  -10.4840   17.4150  -27.5810 N   0  0  0  0  0  0  0  0  0  0  0  0
   -9.1150   17.3380  -28.0740 C   0  0  0  0  0  0  0  0  0  0  0  0
   -9.0650   17.3640  -29.5930 C   0  0  0  0  0  0  0  0  0  0  0  0
   -8.0550   17.7920  -30.1680 O   0  0  0  0  0  0  0  0  0  0  0  0
   -8.4360   16.0380  -27.6070 C   0  0  0  0  0  0  0  0  0  0  0  0
   -8.1190   16.0760  -26.1100 C   0  0  0  0  0  0  0  0  0  0  0  0
   -7.9650   14.8640  -25.5550 N   0  0  0  0  0  0  0  0  0  0  0  0
   -8.0200   17.1320  -25.5020 O   0  0  0  0  0  0  0  0  0  0  0  0
  -10.8850   16.6550  -27.0740 H   0  0  0  0  0  0  0  0  0  0  0  0
   -8.5780   18.2190  -27.7150 H   0  0  0  0  0  0  0  0  0  0  0  0
   -9.0680   15.1750  -27.8210 H   0  0  0  0  0  0  0  0  0  0  0  0
   -7.4920   15.8790  -28.1290 H   0  0  0  0  0  0  0  0  0  0  0  0
   -8.0300   14.0200  -26.0870 H   0  0  0  0  0  0  0  0  0  0  0  0
   -7.7790   14.8040  -24.5740 H   0  0  0  0  0  0  0  0  0  0  0  0
  -10.1470   16.9390  -30.2510 N   0  0  0  0  0  0  0  0  0  0  0  0
  -10.2320   17.0500  -31.7020 C   0  0  0  0  0  0  0  0  0  0  0  0
  -10.1820   18.5110  -32.1300 C   0  0  0  0  0  0  0  0  0  0  0  0
   -9.4300   18.8810  -33.0400 O   0  0  0  0  0  0  0  0  0  0  0  0
  -11.5440   16.3830  -32.1670 C   0  0  0  0  0  0  0  0  0  0  0  0
  -11.5890   16.1190  -33.6510 C   0  0  0  0  0  0  0  0  0  0  0  0
  -12.0080   17.1100  -34.5330 C   0  0  0  0  0  0  0  0  0  0  0  0
  -11.2400   14.8700  -34.1590 C   0  0  0  0  0  0  0  0  0  0  0  0
  -12.0590   16.8650  -35.9000 C   0  0  0  0  0  0  0  0  0  0  0  0
  -11.2610   14.6330  -35.5270 C   0  0  0  0  0  0  0  0  0  0  0  0
  -11.6790   15.6280  -36.3990 C   0  0  0  0  0  0  0  0  0  0  0  0
  -11.7220   15.3860  -37.7580 O   0  0  0  0  0  0  0  0  0  0  0  0
  -10.9260   16.5590  -29.7540 H   0  0  0  0  0  0  0  0  0  0  0  0
   -9.3670   16.5310  -32.1170 H   0  0  0  0  0  0  0  0  0  0  0  0
  -11.6810   15.4360  -31.6450 H   0  0  0  0  0  0  0  0  0  0  0  0
  -12.4060   16.9930  -31.8980 H   0  0  0  0  0  0  0  0  0  0  0  0
  -12.2950   18.0820  -34.1550 H   0  0  0  0  0  0  0  0  0  0  0  0
  -10.9270   14.0820  -33.4910 H   0  0  0  0  0  0  0  0  0  0  0  0
  -12.3830   17.6410  -36.5770 H   0  0  0  0  0  0  0  0  0  0  0  0
  -10.9590   13.6710  -35.9150 H   0  0  0  0  0  0  0  0  0  0  0  0
  -11.1310   14.6740  -37.9630 H   0  0  0  0  0  0  0  0  0  0  0  0
  -10.9630   19.3620  -31.4640 N   0  0  0  0  0  0  0  0  0  0  0  0
  -10.9570   20.7870  -31.7830 C   0  0  0  0  0  0  0  0  0  0  0  0
   -9.5780   21.3960  -31.5680 C   0  0  0  0  0  0  0  0  0  0  0  0
   -9.0950   22.1660  -32.4070 O   0  0  0  0  0  0  0  0  0  0  0  0
  -11.9530   21.5240  -30.8700 C   0  0  0  0  0  0  0  0  0  0  0  0
  -13.3680   20.9400  -30.9470 C   0  0  0  0  0  0  0  0  0  0  0  0
  -14.2180   21.5430  -31.5930 O   0  0  0  0  0  0  0  0  0  0  0  0
  -13.6120   19.8910  -30.3530 O   0  5  0  0  0  0  0  0  0  0  0  0
  -11.5750   19.0440  -30.7390 H   0  0  0  0  0  0  0  0  0  0  0  0
  -11.2440   20.8910  -32.8300 H   0  0  0  0  0  0  0  0  0  0  0  0
  -11.6390   21.4800  -29.8290 H   0  0  0  0  0  0  0  0  0  0  0  0
  -12.0060   22.5770  -31.1440 H   0  0  0  0  0  0  0  0  0  0  0  0
   -7.3410   20.5110  -34.4250 N   0  0  0  0  0  0  0  0  0  0  0  0
   -7.6830   21.2150  -35.6610 C   0  0  0  0  0  0  0  0  0  0  0  0
   -7.1540   22.6420  -35.6240 C   0  0  0  0  0  0  0  0  0  0  0  0
   -6.6160   23.1460  -36.6180 O   0  0  0  0  0  0  0  0  0  0  0  0
   -9.2180   21.1730  -35.8530 C   0  0  0  0  0  0  0  0  0  0  0  0
   -9.7280   22.1410  -36.9370 C   0  0  0  0  0  0  0  0  0  0  0  0
   -9.6890   19.7460  -36.1770 C   0  0  0  0  0  0  0  0  0  0  0  0
   -8.0630   20.2000  -33.8070 H   0  0  0  0  0  0  0  0  0  0  0  0
   -7.1870   20.6950  -36.4820 H   0  0  0  0  0  0  0  0  0  0  0  0
   -9.6820   21.4690  -34.9110 H   0  0  0  0  0  0  0  0  0  0  0  0
  -10.8050   22.0420  -37.0720 H   0  0  0  0  0  0  0  0  0  0  0  0
   -9.5380   23.1820  -36.6750 H   0  0  0  0  0  0  0  0  0  0  0  0
   -9.2510   21.9440  -37.8980 H   0  0  0  0  0  0  0  0  0  0  0  0
  -10.7770   19.6920  -36.1990 H   0  0  0  0  0  0  0  0  0  0  0  0
   -9.3190   19.4220  -37.1500 H   0  0  0  0  0  0  0  0  0  0  0  0
   -9.3400   19.0210  -35.4430 H   0  0  0  0  0  0  0  0  0  0  0  0
  -17.2360   25.2210  -15.9080 N   0  0  0  0  0  0  0  0  0  0  0  0
  -18.4200   25.3710  -16.7390 C   0  0  0  0  0  0  0  0  0  0  0  0
  -18.5070   24.2010  -17.7210 C   0  0  0  0  0  0  0  0  0  0  0  0
  -17.6110   23.3550  -17.8000 O   0  0  0  0  0  0  0  0  0  0  0  0
  -18.4700   26.7590  -17.4030 C   0  0  0  0  0  0  0  0  0  0  0  0
  -18.6780   27.8690  -16.3540 C   0  0  0  0  0  0  0  0  0  0  0  0
  -18.8660   29.2680  -16.9780 C   0  0  0  0  0  0  0  0  0  0  0  0
  -17.9480   30.1650  -16.5890 N   0  0  0  0  0  0  0  0  0  0  0  0
  -19.7840   29.5250  -17.7480 O   0  0  0  0  0  0  0  0  0  0  0  0
  -16.3400   25.2640  -16.3430 H   0  0  0  0  0  0  0  0  0  0  0  0
  -19.3020   25.2700  -16.1050 H   0  0  0  0  0  0  0  0  0  0  0  0
  -17.5620   26.9260  -17.9810 H   0  0  0  0  0  0  0  0  0  0  0  0
  -19.2950   26.7980  -18.1130 H   0  0  0  0  0  0  0  0  0  0  0  0
  -19.5570   27.6590  -15.7480 H   0  0  0  0  0  0  0  0  0  0  0  0
  -17.8470   27.8840  -15.6560 H   0  0  0  0  0  0  0  0  0  0  0  0
  -17.2160   29.8780  -15.9650 H   0  0  0  0  0  0  0  0  0  0  0  0
  -17.9780   31.1190  -16.8770 H   0  0  0  0  0  0  0  0  0  0  0  0
  -18.2850   19.9110  -23.8110 N   0  0  0  0  0  0  0  0  0  0  0  0
  -19.0250   19.4210  -24.9640 C   0  0  0  0  0  0  0  0  0  0  0  0
  -19.8880   18.2280  -24.5590 C   0  0  0  0  0  0  0  0  0  0  0  0
  -19.4330   17.3610  -23.8020 O   0  0  0  0  0  0  0  0  0  0  0  0
  -18.0730   18.9750  -26.0890 C   0  0  0  0  0  0  0  0  0  0  0  0
  -17.2880   19.9410  -23.8420 H   0  0  0  0  0  0  0  0  0  0  0  0
  -19.6270   20.2680  -25.2940 H   0  0  0  0  0  0  0  0  0  0  0  0
  -18.5320   19.1310  -27.0660 H   0  0  0  0  0  0  0  0  0  0  0  0
  -17.1380   19.5240  -26.0700 H   0  0  0  0  0  0  0  0  0  0  0  0
  -17.8080   17.9190  -26.0320 H   0  0  0  0  0  0  0  0  0  0  0  0
  -21.1300   18.1560  -25.0300 N   0  0  0  0  0  0  0  0  0  0  0  0
  -22.0010   17.0350  -24.6490 C   0  0  0  0  0  0  0  0  0  0  0  0
  -21.5090   15.7040  -25.1930 C   0  0  0  0  0  0  0  0  0  0  0  0
  -21.7170   15.3920  -26.3700 O   0  0  0  0  0  0  0  0  0  0  0  0
  -23.3520   17.4380  -25.2540 C   0  0  0  0  0  0  0  0  0  0  0  0
  -23.0150   18.4000  -26.3930 C   0  0  0  0  0  0  0  0  0  0  0  0
  -21.7390   19.1150  -25.9450 C   0  0  0  0  0  0  0  0  0  0  0  0
  -22.0550   16.9920  -23.5600 H   0  0  0  0  0  0  0  0  0  0  0  0
  -23.9460   16.5880  -25.5890 H   0  0  0  0  0  0  0  0  0  0  0  0
  -23.9340   17.9700  -24.5000 H   0  0  0  0  0  0  0  0  0  0  0  0
  -22.8050   17.8240  -27.2960 H   0  0  0  0  0  0  0  0  0  0  0  0
  -23.8280   19.0880  -26.6210 H   0  0  0  0  0  0  0  0  0  0  0  0
  -21.0630   19.3230  -26.7770 H   0  0  0  0  0  0  0  0  0  0  0  0
  -21.9460   20.0230  -25.3770 H   0  0  0  0  0  0  0  0  0  0  0  0
  -20.8460   14.9180  -24.3510 N   0  0  0  0  0  0  0  0  0  0  0  0
  -20.4160   13.5830  -24.7580 C   0  0  0  0  0  0  0  0  0  0  0  0
  -21.6240   12.6630  -24.8520 C   0  0  0  0  0  0  0  0  0  0  0  0
  -22.0210   12.0390  -23.8640 O   0  0  0  0  0  0  0  0  0  0  0  0
  -19.3740   13.0220  -23.7690 C   0  0  0  0  0  0  0  0  0  0  0  0
  -17.9280   13.4650  -24.0460 C   0  0  0  0  0  0  0  0  0  0  0  0
  -17.6900   14.9780  -23.9860 C   0  0  0  0  0  0  0  0  0  0  0  0
  -16.2580   15.2450  -24.1330 N   0  0  0  0  0  0  0  0  0  0  0  0
  -15.7170   16.4580  -24.0660 C   0  0  0  0  0  0  0  0  0  0  0  0
  -16.4430   17.5180  -23.8600 N   0  3  0  0  0  0  0  0  0  0  0  0
  -14.4300   16.6000  -24.2100 N   0  0  0  0  0  0  0  0  0  0  0  0
  -20.6610   15.2640  -23.4330 H   0  0  0  0  0  0  0  0  0  0  0  0
  -19.9740   13.6580  -25.7540 H   0  0  0  0  0  0  0  0  0  0  0  0
  -19.6610   13.2610  -22.7450 H   0  0  0  0  0  0  0  0  0  0  0  0
  -19.3700   11.9320  -23.8310 H   0  0  0  0  0  0  0  0  0  0  0  0
  -17.2790   12.9790  -23.3160 H   0  0  0  0  0  0  0  0  0  0  0  0
  -17.6200   13.0920  -25.0230 H   0  0  0  0  0  0  0  0  0  0  0  0
  -18.2140   15.4820  -24.8020 H   0  0  0  0  0  0  0  0  0  0  0  0
  -18.0260   15.3850  -23.0290 H   0  0  0  0  0  0  0  0  0  0  0  0
  -15.6440   14.4740  -24.2970 H   0  0  0  0  0  0  0  0  0  0  0  0
  -17.4330   17.4320  -23.7470 H   0  0  0  0  0  0  0  0  0  0  0  0
  -16.0110   18.4170  -23.8200 H   0  0  0  0  0  0  0  0  0  0  0  0
  -13.8450   15.8100  -24.3650 H   0  0  0  0  0  0  0  0  0  0  0  0
  -14.0120   17.5080  -24.1610 H   0  0  0  0  0  0  0  0  0  0  0  0
  -22.2200   12.5850  -26.0470 N   0  0  0  0  0  0  0  0  0  0  0  0
  -23.4700   11.8470  -26.2070 C   0  0  0  0  0  0  0  0  0  0  0  0
  -23.2990   10.3670  -25.8780 C   0  0  0  0  0  0  0  0  0  0  0  0
  -24.1960    9.7490  -25.2910 O   0  0  0  0  0  0  0  0  0  0  0  0
  -24.0180   12.0080  -27.6390 C   0  0  0  0  0  0  0  0  0  0  0  0
  -24.2740   13.4750  -28.0000 C   0  0  0  0  0  0  0  0  0  0  0  0
  -23.1290   11.4820  -28.6090 O   0  0  0  0  0  0  0  0  0  0  0  0
  -21.8090   13.0480  -26.8340 H   0  0  0  0  0  0  0  0  0  0  0  0
  -24.1800   12.2660  -25.4920 H   0  0  0  0  0  0  0  0  0  0  0  0
  -24.9810   11.4900  -27.7160 H   0  0  0  0  0  0  0  0  0  0  0  0
  -22.9460   10.5680  -28.4170 H   0  0  0  0  0  0  0  0  0  0  0  0
  -24.7280   13.5530  -28.9880 H   0  0  0  0  0  0  0  0  0  0  0  0
  -24.9500   13.9450  -27.2850 H   0  0  0  0  0  0  0  0  0  0  0  0
  -23.3480   14.0490  -28.0200 H   0  0  0  0  0  0  0  0  0  0  0  0
  -11.6280   17.1250  -19.6630 N   0  0  0  0  0  0  0  0  0  0  0  0
  -12.4060   17.6890  -20.7630 C   0  0  0  0  0  0  0  0  0  0  0  0
  -11.5770   17.7700  -22.0370 C   0  0  0  0  0  0  0  0  0  0  0  0
  -12.0610   17.4390  -23.1250 O   0  0  0  0  0  0  0  0  0  0  0  0
  -12.9130   19.1040  -20.4010 C   0  0  0  0  0  0  0  0  0  0  0  0
  -14.0130   19.1860  -19.3650 C   0  0  0  0  0  0  0  0  0  0  0  0
  -14.6860   18.0650  -18.8740 C   0  0  0  0  0  0  0  0  0  0  0  0
  -14.3970   20.4440  -18.9030 C   0  0  0  0  0  0  0  0  0  0  0  0
  -15.7170   18.2030  -17.9520 C   0  0  0  0  0  0  0  0  0  0  0  0
  -15.4250   20.5860  -17.9780 C   0  0  0  0  0  0  0  0  0  0  0  0
  -16.0900   19.4640  -17.5040 C   0  0  0  0  0  0  0  0  0  0  0  0
  -11.3430   17.7050  -18.8980 H   0  0  0  0  0  0  0  0  0  0  0  0
  -13.2380   17.0160  -20.9720 H   0  0  0  0  0  0  0  0  0  0  0  0
  -12.0760   19.7110  -20.0570 H   0  0  0  0  0  0  0  0  0  0  0  0
  -13.2960   19.5990  -21.2950 H   0  0  0  0  0  0  0  0  0  0  0  0
  -14.4130   17.0660  -19.1740 H   0  0  0  0  0  0  0  0  0  0  0  0
  -13.8960   21.3300  -19.2640 H   0  0  0  0  0  0  0  0  0  0  0  0
  -16.2160   17.3270  -17.5640 H   0  0  0  0  0  0  0  0  0  0  0  0
  -15.7030   21.5680  -17.6220 H   0  0  0  0  0  0  0  0  0  0  0  0
  -16.8790   19.5720  -16.7740 H   0  0  0  0  0  0  0  0  0  0  0  0
  -18.9800   40.5830  -12.0120 N   0  0  0  0  0  0  0  0  0  0  0  0
  -19.8360   41.7620  -12.0490 C   0  0  0  0  0  0  0  0  0  0  0  0
  -21.3210   41.4380  -12.1250 C   0  0  0  0  0  0  0  0  0  0  0  0
  -22.1440   42.3090  -11.8240 O   0  0  0  0  0  0  0  0  0  0  0  0
  -19.3450   42.6950  -13.1750 C   0  0  0  0  0  0  0  0  0  0  0  0
  -17.8120   42.9020  -13.1300 C   0  0  0  0  0  0  0  0  0  0  0  0
  -17.2790   44.0320  -14.0260 C   0  0  0  0  0  0  0  0  0  0  0  0
  -17.4030   45.3250  -13.3470 N   0  0  0  0  0  0  0  0  0  0  0  0
  -16.8700   46.4620  -13.7930 C   0  0  0  0  0  0  0  0  0  0  0  0
  -17.0300   47.5520  -13.0910 N   0  3  0  0  0  0  0  0  0  0  0  0
  -16.1900   46.5150  -14.9100 N   0  0  0  0  0  0  0  0  0  0  0  0
  -18.5810   40.2310  -12.8570 H   0  0  0  0  0  0  0  0  0  0  0  0
  -19.6840   42.2900  -11.1150 H   0  0  0  0  0  0  0  0  0  0  0  0
  -19.6210   42.2860  -14.1480 H   0  0  0  0  0  0  0  0  0  0  0  0
  -19.8510   43.6570  -13.0910 H   0  0  0  0  0  0  0  0  0  0  0  0
  -17.4870   43.0790  -12.1030 H   0  0  0  0  0  0  0  0  0  0  0  0
  -17.3260   41.9740  -13.4360 H   0  0  0  0  0  0  0  0  0  0  0  0
  -16.2170   43.8640  -14.2290 H   0  0  0  0  0  0  0  0  0  0  0  0
  -17.8110   44.0760  -14.9810 H   0  0  0  0  0  0  0  0  0  0  0  0
  -17.9030   45.3950  -12.4830 H   0  0  0  0  0  0  0  0  0  0  0  0
  -17.5370   47.5210  -12.2310 H   0  0  0  0  0  0  0  0  0  0  0  0
  -16.6450   48.4150  -13.4130 H   0  0  0  0  0  0  0  0  0  0  0  0
  -16.0590   45.6900  -15.4540 H   0  0  0  0  0  0  0  0  0  0  0  0
  -15.7940   47.3760  -15.2270 H   0  0  0  0  0  0  0  0  0  0  0  0
  -21.6820   40.2180  -12.5110 N   0  0  0  0  0  0  0  0  0  0  0  0
  -23.0600   39.8920  -12.8530 C   0  0  0  0  0  0  0  0  0  0  0  0
  -23.8960   39.4830  -11.6480 C   0  0  0  0  0  0  0  0  0  0  0  0
  -25.0650   39.8700  -11.5420 O   0  0  0  0  0  0  0  0  0  0  0  0
  -22.9240   38.7020  -13.8170 C   0  0  0  0  0  0  0  0  0  0  0  0
  -24.2010   37.9050  -14.1290 C   0  0  0  0  0  0  0  0  0  0  0  0
  -23.9360   36.8550  -15.2130 C   0  0  0  0  0  0  0  0  0  0  0  0
  -23.5320   37.5440  -16.4340 N   0  0  0  0  0  0  0  0  0  0  0  0
  -22.8910   37.0430  -17.4760 C   0  0  0  0  0  0  0  0  0  0  0  0
  -22.5190   35.7960  -17.5020 N   0  3  0  0  0  0  0  0  0  0  0  0
  -22.6370   37.8090  -18.4940 N   0  0  0  0  0  0  0  0  0  0  0  0
  -20.9780   39.5110  -12.5730 H   0  0  0  0  0  0  0  0  0  0  0  0
  -23.5260   40.7450  -13.3520 H   0  0  0  0  0  0  0  0  0  0  0  0
  -22.4860   39.0900  -14.7370 H   0  0  0  0  0  0  0  0  0  0  0  0
  -22.1960   37.9980  -13.4120 H   0  0  0  0  0  0  0  0  0  0  0  0
  -24.5640   37.4020  -13.2320 H   0  0  0  0  0  0  0  0  0  0  0  0
  -25.0000   38.5730  -14.4400 H   0  0  0  0  0  0  0  0  0  0  0  0
  -23.1480   36.1670  -14.9010 H   0  0  0  0  0  0  0  0  0  0  0  0
  -24.8420   36.2840  -15.4340 H   0  0  0  0  0  0  0  0  0  0  0  0
  -23.7920   38.5170  -16.5430 H   0  0  0  0  0  0  0  0  0  0  0  0
  -22.7390   35.2260  -16.7170 H   0  0  0  0  0  0  0  0  0  0  0  0
  -22.0390   35.4540  -18.3030 H   0  0  0  0  0  0  0  0  0  0  0  0
  -23.0130   38.7460  -18.4580 H   0  0  0  0  0  0  0  0  0  0  0  0
  -22.1210   37.5170  -19.2890 H   0  0  0  0  0  0  0  0  0  0  0  0
  -25.5820   28.8540  -21.2880 N   0  0  0  0  0  0  0  0  0  0  0  0
  -24.1930   29.2090  -21.0240 C   0  0  0  0  0  0  0  0  0  0  0  0
  -23.8160   30.4750  -21.7860 C   0  0  0  0  0  0  0  0  0  0  0  0
  -24.1010   30.6040  -22.9790 O   0  0  0  0  0  0  0  0  0  0  0  0
  -23.2720   28.0230  -21.3440 C   0  0  0  0  0  0  0  0  0  0  0  0
  -21.7980   28.3220  -21.0120 C   0  0  0  0  0  0  0  0  0  0  0  0
  -21.0090   27.0390  -20.7400 C   0  0  0  0  0  0  0  0  0  0  0  0
  -20.1410   26.7010  -21.7040 N   0  0  0  0  0  0  0  0  0  0  0  0
  -21.1800   26.4060  -19.7090 O   0  0  0  0  0  0  0  0  0  0  0  0
  -25.7770   27.9890  -21.7550 H   0  0  0  0  0  0  0  0  0  0  0  0
  -24.1370   29.4130  -19.9530 H   0  0  0  0  0  0  0  0  0  0  0  0
  -23.6230   27.1690  -20.7610 H   0  0  0  0  0  0  0  0  0  0  0  0
  -23.3690   27.7320  -22.3920 H   0  0  0  0  0  0  0  0  0  0  0  0
  -21.3240   28.8900  -21.8130 H   0  0  0  0  0  0  0  0  0  0  0  0
  -21.7280   28.9230  -20.1060 H   0  0  0  0  0  0  0  0  0  0  0  0
  -20.0470   27.2450  -22.5380 H   0  0  0  0  0  0  0  0  0  0  0  0
  -19.5790   25.8820  -21.5820 H   0  0  0  0  0  0  0  0  0  0  0  0
  -23.1950   31.4200  -21.0840 N   0  0  0  0  0  0  0  0  0  0  0  0
  -22.7790   32.6720  -21.6900 C   0  0  0  0  0  0  0  0  0  0  0  0
  -23.7010   33.8530  -21.4390 C   0  0  0  0  0  0  0  0  0  0  0  0
  -23.2260   34.9560  -21.1470 O   0  0  0  0  0  0  0  0  0  0  0  0
  -23.0180   31.1980  -20.1300 H   0  0  0  0  0  0  0  0  0  0  0  0
  -21.7950   32.9020  -21.2830 H   0  0  0  0  0  0  0  0  0  0  0  0
  -22.6570   32.5380  -22.7670 H   0  0  0  0  0  0  0  0  0  0  0  0
  -25.0130   33.6420  -21.5490 N   0  0  0  0  0  0  0  0  0  0  0  0
  -25.9930   34.7090  -21.4110 C   0  0  0  0  0  0  0  0  0  0  0  0
  -26.3350   34.9510  -19.9380 C   0  0  0  0  0  0  0  0  0  0  0  0
  -25.9310   34.2030  -19.0460 O   0  0  0  0  0  0  0  0  0  0  0  0
  -27.2760   34.2570  -22.1300 C   0  0  0  0  0  0  0  0  0  0  0  0
  -27.7570   33.0630  -21.5210 O   0  0  0  0  0  0  0  0  0  0  0  0
  -25.3500   32.7200  -21.7480 H   0  0  0  0  0  0  0  0  0  0  0  0
  -25.5930   35.6210  -21.8560 H   0  0  0  0  0  0  0  0  0  0  0  0
  -28.0340   35.0490  -22.0900 H   0  0  0  0  0  0  0  0  0  0  0  0
  -27.0550   34.0650  -23.1850 H   0  0  0  0  0  0  0  0  0  0  0  0
  -28.6130   32.8100  -21.8640 H   0  0  0  0  0  0  0  0  0  0  0  0
  -27.0950   36.0230  -19.6920 N   0  0  0  0  0  0  0  0  0  0  0  0
  -27.4420   36.4530  -18.3420 C   0  0  0  0  0  0  0  0  0  0  0  0
  -28.8630   37.0020  -18.3290 C   0  0  0  0  0  0  0  0  0  0  0  0
  -29.3670   37.4850  -19.3440 O   0  0  0  0  0  0  0  0  0  0  0  0
  -26.4200   37.4210  -17.7600 C   0  0  0  0  0  0  0  0  0  0  0  0
  -26.4040   38.8440  -18.3440 C   0  0  0  0  0  0  0  0  0  0  0  0
  -25.2500   39.6120  -17.6840 C   0  0  0  0  0  0  0  0  0  0  0  0
  -24.2790   39.9360  -18.3530 O   0  0  0  0  0  0  0  0  0  0  0  0
  -25.3010   39.8610  -16.4850 O   0  5  0  0  0  0  0  0  0  0  0  0
  -27.4490   36.5630  -20.4570 H   0  0  0  0  0  0  0  0  0  0  0  0
  -27.4660   35.5540  -17.7220 H   0  0  0  0  0  0  0  0  0  0  0  0
  -26.5660   37.4790  -16.6800 H   0  0  0  0  0  0  0  0  0  0  0  0
  -25.4550   36.9530  -17.9210 H   0  0  0  0  0  0  0  0  0  0  0  0
  -26.2580   38.8250  -19.4240 H   0  0  0  0  0  0  0  0  0  0  0  0
  -27.3360   39.3690  -18.1430 H   0  0  0  0  0  0  0  0  0  0  0  0
  1  2  1  0  0  0  0
  1 13  1  0  0  0  0
  2  3  1  0  0  0  0
  2  5  1  0  0  0  0
  2 14  1  0  0  0  0
  3  4  2  0  0  0  0
  5  6  1  0  0  0  0
  5 15  1  0  0  0  0
  5 16  1  0  0  0  0
  6  7  2  0  0  0  0
  6  8  1  0  0  0  0
  7  9  1  0  0  0  0
  7 17  1  0  0  0  0
  8 10  2  0  0  0  0
  8 18  1  0  0  0  0
  9 11  2  0  0  0  0
  9 19  1  0  0  0  0
 10 11  1  0  0  0  0
 10 20  1  0  0  0  0
 11 12  1  0  0  0  0
 12 21  1  0  0  0  0
 22 23  1  0  0  0  0
 22 27  1  0  0  0  0
 23 24  1  0  0  0  0
 23 26  1  0  0  0  0
 23 28  1  0  0  0  0
 24 25  2  0  0  0  0
 24 32  1  0  0  0  0
 26 29  1  0  0  0  0
 26 30  1  0  0  0  0
 26 31  1  0  0  0  0
 32 33  1  0  0  0  0
 32 40  1  0  0  0  0
 33 34  1  0  0  0  0
 33 36  1  0  0  0  0
 33 41  1  0  0  0  0
 34 35  2  0  0  0  0
 36 37  1  0  0  0  0
 36 42  1  0  0  0  0
 36 43  1  0  0  0  0
 37 38  1  0  0  0  0
 37 39  2  0  0  0  0
 38 44  1  0  0  0  0
 38 45  1  0  0  0  0
 46 47  1  0  0  0  0
 46 51  1  0  0  0  0
 47 48  1  0  0  0  0
 47 50  1  0  0  0  0
 47 52  1  0  0  0  0
 48 49  2  0  0  0  0
 50 53  1  0  0  0  0
 50 54  1  0  0  0  0
 50 55  1  0  0  0  0
 56 57  1  0  0  0  0
 56 64  1  0  0  0  0
 57 58  1  0  0  0  0
 57 60  1  0  0  0  0
 57 65  1  0  0  0  0
 58 59  2  0  0  0  0
 58 75  1  0  0  0  0
 60 61  1  0  0  0  0
 60 66  1  0  0  0  0
 60 67  1  0  0  0  0
 61 62  1  0  0  0  0
 61 63  1  0  0  0  0
 61 68  1  0  0  0  0
 62 69  1  0  0  0  0
 62 70  1  0  0  0  0
 62 71  1  0  0  0  0
 63 72  1  0  0  0  0
 63 73  1  0  0  0  0
 63 74  1  0  0  0  0
 75 76  1  0  0  0  0
 75 84  1  0  0  0  0
 76 77  1  0  0  0  0
 76 79  1  0  0  0  0
 76 85  1  0  0  0  0
 77 78  2  0  0  0  0
 79 80  1  0  0  0  0
 79 86  1  0  0  0  0
 79 87  1  0  0  0  0
 80 81  1  0  0  0  0
 80 88  1  0  0  0  0
 80 89  1  0  0  0  0
 81 82  1  0  0  0  0
 81 90  1  0  0  0  0
 81 91  1  0  0  0  0
 82 83  1  0  0  0  0
 82 92  1  0  0  0  0
 82 93  1  0  0  0  0
 83 94  1  0  0  0  0
 83 95  1  0  0  0  0
 83 96  1  0  0  0  0
 97 98  1  0  0  0  0
 97106  1  0  0  0  0
 98 99  1  0  0  0  0
 98101  1  0  0  0  0
 98107  1  0  0  0  0
 99100  2  0  0  0  0
 99112  1  0  0  0  0
101102  1  0  0  0  0
101108  1  0  0  0  0
101109  1  0  0  0  0
102103  1  0  0  0  0
102110  1  0  0  0  0
102111  1  0  0  0  0
103104  2  0  0  0  0
103105  1  0  0  0  0
112113  1  0  0  0  0
112121  1  0  0  0  0
113114  1  0  0  0  0
113116  1  0  0  0  0
113122  1  0  0  0  0
114115  2  0  0  0  0
116117  1  0  0  0  0
116123  1  0  0  0  0
116124  1  0  0  0  0
117118  1  0  0  0  0
117125  1  0  0  0  0
117126  1  0  0  0  0
118119  2  0  0  0  0
118120  1  0  0  0  0
127128  1  0  0  0  0
127136  1  0  0  0  0
128129  1  0  0  0  0
128131  1  0  0  0  0
128137  1  0  0  0  0
129130  2  0  0  0  0
131132  1  0  0  0  0
131138  1  0  0  0  0
131139  1  0  0  0  0
132133  1  0  0  0  0
132140  1  0  0  0  0
132141  1  0  0  0  0
133134  1  0  0  0  0
133142  1  0  0  0  0
133143  1  0  0  0  0
134135  1  0  0  0  0
134144  1  0  0  0  0
134145  1  0  0  0  0
135146  1  0  0  0  0
135147  1  0  0  0  0
135148  1  0  0  0  0
149150  1  0  0  0  0
149157  1  0  0  0  0
150151  1  0  0  0  0
150153  1  0  0  0  0
150158  1  0  0  0  0
151152  2  0  0  0  0
151163  1  0  0  0  0
153154  1  0  0  0  0
153159  1  0  0  0  0
153160  1  0  0  0  0
154155  1  0  0  0  0
154156  2  0  0  0  0
155161  1  0  0  0  0
155162  1  0  0  0  0
163164  1  0  0  0  0
163175  1  0  0  0  0
164165  1  0  0  0  0
164167  1  0  0  0  0
164176  1  0  0  0  0
165166  2  0  0  0  0
165184  1  0  0  0  0
167168  1  0  0  0  0
167177  1  0  0  0  0
167178  1  0  0  0  0
168169  2  0  0  0  0
168170  1  0  0  0  0
169171  1  0  0  0  0
169179  1  0  0  0  0
170172  2  0  0  0  0
170180  1  0  0  0  0
171173  2  0  0  0  0
171181  1  0  0  0  0
172173  1  0  0  0  0
172182  1  0  0  0  0
173174  1  0  0  0  0
174183  1  0  0  0  0
184185  1  0  0  0  0
184191  1  0  0  0  0
185186  1  0  0  0  0
185188  1  0  0  0  0
185192  1  0  0  0  0
186187  2  0  0  0  0
188189  1  0  0  0  0
188190  1  0  0  0  0
188193  1  0  0  0  0
189194  1  0  0  0  0
189195  1  0  0  0  0
189196  1  0  0  0  0
190197  1  0  0  0  0
190198  1  0  0  0  0
190199  1  0  0  0  0
200201  1  0  0  0  0
200207  1  0  0  0  0
201202  1  0  0  0  0
201204  1  0  0  0  0
201208  1  0  0  0  0
202203  2  0  0  0  0
204205  1  0  0  0  0
204206  1  0  0  0  0
204209  1  0  0  0  0
205211  1  0  0  0  0
205212  1  0  0  0  0
205213  1  0  0  0  0
206210  1  0  0  0  0
214215  1  0  0  0  0
214224  1  0  0  0  0
215216  1  0  0  0  0
215218  1  0  0  0  0
215225  1  0  0  0  0
216217  2  0  0  0  0
216231  1  0  0  0  0
218219  1  0  0  0  0
218226  1  0  0  0  0
218227  1  0  0  0  0
219220  2  0  0  0  0
219221  1  0  0  0  0
220223  1  0  0  0  0
220229  1  0  0  0  0
221222  2  0  0  0  0
221228  1  0  0  0  0
222223  1  0  0  0  0
222230  1  0  0  0  0
231232  1  0  0  0  0
231238  1  0  0  0  0
232233  1  0  0  0  0
232235  1  0  0  0  0
232239  1  0  0  0  0
233234  2  0  0  0  0
233245  1  0  0  0  0
235236  1  0  0  0  0
235237  1  0  0  0  0
235240  1  0  0  0  0
236242  1  0  0  0  0
236243  1  0  0  0  0
236244  1  0  0  0  0
237241  1  0  0  0  0
245246  1  0  0  0  0
245252  1  0  0  0  0
246247  1  0  0  0  0
246249  1  0  0  0  0
246253  1  0  0  0  0
247248  2  0  0  0  0
247261  1  0  0  0  0
249250  1  0  0  0  0
249251  1  0  0  0  0
249254  1  0  0  0  0
250255  1  0  0  0  0
250256  1  0  0  0  0
250257  1  0  0  0  0
251258  1  0  0  0  0
251259  1  0  0  0  0
251260  1  0  0  0  0
261262  1  0  0  0  0
261269  1  0  0  0  0
262263  1  0  0  0  0
262265  1  0  0  0  0
262270  1  0  0  0  0
263264  2  0  0  0  0
265266  1  0  0  0  0
265271  1  0  0  0  0
265272  1  0  0  0  0
266267  1  0  0  0  0
266273  1  0  0  0  0
266274  1  0  0  0  0
267268  1  0  0  0  0
268275  1  0  0  0  0
268276  1  0  0  0  0
268277  1  0  0  0  0
278279  1  0  0  0  0
278284  1  0  0  0  0
279280  1  0  0  0  0
279282  1  0  0  0  0
279285  1  0  0  0  0
280281  2  0  0  0  0
280292  1  0  0  0  0
282283  1  0  0  0  0
282286  1  0  0  0  0
282287  1  0  0  0  0
283284  1  0  0  0  0
283288  1  0  0  0  0
283289  1  0  0  0  0
284290  1  0  0  0  0
284291  1  0  0  0  0
292293  1  0  0  0  0
292298  1  0  0  0  0
293294  1  0  0  0  0
293296  1  0  0  0  0
293299  1  0  0  0  0
294295  2  0  0  0  0
294306  1  0  0  0  0
296297  1  0  0  0  0
296300  1  0  0  0  0
296301  1  0  0  0  0
297298  1  0  0  0  0
297302  1  0  0  0  0
297303  1  0  0  0  0
298304  1  0  0  0  0
298305  1  0  0  0  0
306307  1  0  0  0  0
306310  1  0  0  0  0
307308  1  0  0  0  0
307311  1  0  0  0  0
307312  1  0  0  0  0
308309  2  0  0  0  0
313314  1  0  0  0  0
313317  1  0  0  0  0
314315  1  0  0  0  0
314318  1  0  0  0  0
314319  1  0  0  0  0
315316  2  0  0  0  0
315320  1  0  0  0  0
320321  1  0  0  0  0
320329  1  0  0  0  0
321322  1  0  0  0  0
321324  1  0  0  0  0
321330  1  0  0  0  0
322323  2  0  0  0  0
322342  1  0  0  0  0
324325  1  0  0  0  0
324331  1  0  0  0  0
324332  1  0  0  0  0
325326  1  0  0  0  0
325333  1  0  0  0  0
325334  1  0  0  0  0
326327  1  0  0  0  0
326335  1  0  0  0  0
326336  1  0  0  0  0
327328  1  0  0  0  0
327337  1  0  0  0  0
327338  1  0  0  0  0
328339  1  0  0  0  0
328340  1  0  0  0  0
328341  1  0  0  0  0
342343  1  0  0  0  0
342348  1  0  0  0  0
343344  1  0  0  0  0
343346  1  0  0  0  0
343349  1  0  0  0  0
344345  2  0  0  0  0
344353  1  0  0  0  0
346347  1  0  0  0  0
346350  1  0  0  0  0
346351  1  0  0  0  0
347352  1  0  0  0  0
353354  1  0  0  0  0
353363  1  0  0  0  0
354355  1  0  0  0  0
354357  1  0  0  0  0
354364  1  0  0  0  0
355356  2  0  0  0  0
357358  1  0  0  0  0
357365  1  0  0  0  0
357366  1  0  0  0  0
358359  2  0  0  0  0
358360  1  0  0  0  0
359362  1  0  0  0  0
359367  1  0  0  0  0
360361  2  0  0  0  0
361362  1  0  0  0  0
361368  1  0  0  0  0
362369  1  0  0  0  0
370371  1  0  0  0  0
370376  1  0  0  0  0
371372  1  0  0  0  0
371374  1  0  0  0  0
371377  1  0  0  0  0
372373  2  0  0  0  0
372381  1  0  0  0  0
374375  1  0  0  0  0
374378  1  0  0  0  0
374379  1  0  0  0  0
375380  1  0  0  0  0
381382  1  0  0  0  0
381387  1  0  0  0  0
382383  1  0  0  0  0
382385  1  0  0  0  0
382388  1  0  0  0  0
383384  2  0  0  0  0
383392  1  0  0  0  0
385386  1  0  0  0  0
385389  1  0  0  0  0
385390  1  0  0  0  0
386391  1  0  0  0  0
392393  1  0  0  0  0
392402  1  0  0  0  0
393394  1  0  0  0  0
393396  1  0  0  0  0
393403  1  0  0  0  0
394395  2  0  0  0  0
394409  1  0  0  0  0
396397  1  0  0  0  0
396404  1  0  0  0  0
396405  1  0  0  0  0
397398  2  0  0  0  0
397399  1  0  0  0  0
398401  1  0  0  0  0
398406  1  0  0  0  0
399400  2  0  0  0  0
400401  1  0  0  0  0
400407  1  0  0  0  0
401408  1  0  0  0  0
409410  1  0  0  0  0
409414  1  0  0  0  0
410411  1  0  0  0  0
410413  1  0  0  0  0
410415  1  0  0  0  0
411412  2  0  0  0  0
411419  1  0  0  0  0
413416  1  0  0  0  0
413417  1  0  0  0  0
413418  1  0  0  0  0
419420  1  0  0  0  0
419424  1  0  0  0  0
420421  1  0  0  0  0
420423  1  0  0  0  0
420425  1  0  0  0  0
421422  2  0  0  0  0
423426  1  0  0  0  0
423427  1  0  0  0  0
423428  1  0  0  0  0
429430  1  0  0  0  0
429434  1  0  0  0  0
430431  1  0  0  0  0
430433  1  0  0  0  0
430435  1  0  0  0  0
431432  2  0  0  0  0
433436  1  0  0  0  0
433437  1  0  0  0  0
433438  1  0  0  0  0
439440  1  0  0  0  0
439448  1  0  0  0  0
440441  1  0  0  0  0
440443  1  0  0  0  0
440449  1  0  0  0  0
441442  2  0  0  0  0
443444  1  0  0  0  0
443450  1  0  0  0  0
443451  1  0  0  0  0
444445  1  0  0  0  0
444452  1  0  0  0  0
444453  1  0  0  0  0
445446  1  0  0  0  0
445454  1  0  0  0  0
445455  1  0  0  0  0
446447  1  0  0  0  0
446456  1  0  0  0  0
446457  1  0  0  0  0
447458  1  0  0  0  0
447459  1  0  0  0  0
447460  1  0  0  0  0
461462  1  0  0  0  0
461468  1  0  0  0  0
462463  1  0  0  0  0
462465  1  0  0  0  0
462469  1  0  0  0  0
463464  2  0  0  0  0
463477  1  0  0  0  0
465466  1  0  0  0  0
465467  1  0  0  0  0
465470  1  0  0  0  0
466471  1  0  0  0  0
466472  1  0  0  0  0
466473  1  0  0  0  0
467474  1  0  0  0  0
467475  1  0  0  0  0
467476  1  0  0  0  0
477478  1  0  0  0  0
477485  1  0  0  0  0
478479  1  0  0  0  0
478481  1  0  0  0  0
478486  1  0  0  0  0
479480  2  0  0  0  0
481482  1  0  0  0  0
481487  1  0  0  0  0
481488  1  0  0  0  0
482483  1  0  0  0  0
482484  2  0  0  0  0
483489  1  0  0  0  0
483490  1  0  0  0  0
491492  1  0  0  0  0
491499  1  0  0  0  0
492493  1  0  0  0  0
492495  1  0  0  0  0
492500  1  0  0  0  0
493494  2  0  0  0  0
493503  1  0  0  0  0
495496  1  0  0  0  0
495501  1  0  0  0  0
495502  1  0  0  0  0
496497  2  0  0  0  0
496498  1  0  0  0  0
503504  1  0  0  0  0
503512  1  0  0  0  0
504505  1  0  0  0  0
504507  1  0  0  0  0
504513  1  0  0  0  0
505506  2  0  0  0  0
507508  1  0  0  0  0
507514  1  0  0  0  0
507515  1  0  0  0  0
508509  1  0  0  0  0
508516  1  0  0  0  0
508517  1  0  0  0  0
509510  2  0  0  0  0
509511  1  0  0  0  0
511518  1  0  0  0  0
519520  1  0  0  0  0
519527  1  0  0  0  0
520521  1  0  0  0  0
520523  1  0  0  0  0
520528  1  0  0  0  0
521522  2  0  0  0  0
523524  1  0  0  0  0
523529  1  0  0  0  0
523530  1  0  0  0  0
524525  1  0  0  0  0
524531  1  0  0  0  0
524532  1  0  0  0  0
525526  1  0  0  0  0
526533  1  0  0  0  0
526534  1  0  0  0  0
526535  1  0  0  0  0
536537  1  0  0  0  0
536543  1  0  0  0  0
537538  1  0  0  0  0
537540  1  0  0  0  0
537544  1  0  0  0  0
538539  2  0  0  0  0
538550  1  0  0  0  0
540541  1  0  0  0  0
540542  1  0  0  0  0
540545  1  0  0  0  0
541547  1  0  0  0  0
541548  1  0  0  0  0
541549  1  0  0  0  0
542546  1  0  0  0  0
550551  1  0  0  0  0
550558  1  0  0  0  0
551552  1  0  0  0  0
551554  1  0  0  0  0
551559  1  0  0  0  0
552553  2  0  0  0  0
552564  1  0  0  0  0
554555  1  0  0  0  0
554560  1  0  0  0  0
554561  1  0  0  0  0
555556  1  0  0  0  0
555557  2  0  0  0  0
556562  1  0  0  0  0
556563  1  0  0  0  0
564565  1  0  0  0  0
564576  1  0  0  0  0
565566  1  0  0  0  0
565568  1  0  0  0  0
565577  1  0  0  0  0
566567  2  0  0  0  0
566585  1  0  0  0  0
568569  1  0  0  0  0
568578  1  0  0  0  0
568579  1  0  0  0  0
569570  2  0  0  0  0
569571  1  0  0  0  0
570572  1  0  0  0  0
570580  1  0  0  0  0
571573  2  0  0  0  0
571581  1  0  0  0  0
572574  2  0  0  0  0
572582  1  0  0  0  0
573574  1  0  0  0  0
573583  1  0  0  0  0
574575  1  0  0  0  0
575584  1  0  0  0  0
585586  1  0  0  0  0
585593  1  0  0  0  0
586587  1  0  0  0  0
586589  1  0  0  0  0
586594  1  0  0  0  0
587588  2  0  0  0  0
589590  1  0  0  0  0
589595  1  0  0  0  0
589596  1  0  0  0  0
590591  2  0  0  0  0
590592  1  0  0  0  0
597598  1  0  0  0  0
597604  1  0  0  0  0
598599  1  0  0  0  0
598601  1  0  0  0  0
598605  1  0  0  0  0
599600  2  0  0  0  0
601602  1  0  0  0  0
601603  1  0  0  0  0
601606  1  0  0  0  0
602607  1  0  0  0  0
602608  1  0  0  0  0
602609  1  0  0  0  0
603610  1  0  0  0  0
603611  1  0  0  0  0
603612  1  0  0  0  0
613614  1  0  0  0  0
613622  1  0  0  0  0
614615  1  0  0  0  0
614617  1  0  0  0  0
614623  1  0  0  0  0
615616  2  0  0  0  0
617618  1  0  0  0  0
617624  1  0  0  0  0
617625  1  0  0  0  0
618619  1  0  0  0  0
618626  1  0  0  0  0
618627  1  0  0  0  0
619620  1  0  0  0  0
619621  2  0  0  0  0
620628  1  0  0  0  0
620629  1  0  0  0  0
630631  1  0  0  0  0
630635  1  0  0  0  0
631632  1  0  0  0  0
631634  1  0  0  0  0
631636  1  0  0  0  0
632633  2  0  0  0  0
632640  1  0  0  0  0
634637  1  0  0  0  0
634638  1  0  0  0  0
634639  1  0  0  0  0
640641  1  0  0  0  0
640646  1  0  0  0  0
641642  1  0  0  0  0
641644  1  0  0  0  0
641647  1  0  0  0  0
642643  2  0  0  0  0
642654  1  0  0  0  0
644645  1  0  0  0  0
644648  1  0  0  0  0
644649  1  0  0  0  0
645646  1  0  0  0  0
645650  1  0  0  0  0
645651  1  0  0  0  0
646652  1  0  0  0  0
646653  1  0  0  0  0
654655  1  0  0  0  0
654665  1  0  0  0  0
655656  1  0  0  0  0
655658  1  0  0  0  0
655666  1  0  0  0  0
656657  2  0  0  0  0
656678  1  0  0  0  0
658659  1  0  0  0  0
658667  1  0  0  0  0
658668  1  0  0  0  0
659660  1  0  0  0  0
659669  1  0  0  0  0
659670  1  0  0  0  0
660661  1  0  0  0  0
660671  1  0  0  0  0
660672  1  0  0  0  0
661662  1  0  0  0  0
661673  1  0  0  0  0
662663  2  0  0  0  0
662664  1  0  0  0  0
663674  1  0  0  0  0
663675  1  0  0  0  0
664676  1  0  0  0  0
664677  1  0  0  0  0
678679  1  0  0  0  0
678685  1  0  0  0  0
679680  1  0  0  0  0
679682  1  0  0  0  0
679686  1  0  0  0  0
680681  2  0  0  0  0
682683  1  0  0  0  0
682684  1  0  0  0  0
682687  1  0  0  0  0
683689  1  0  0  0  0
683690  1  0  0  0  0
683691  1  0  0  0  0
684688  1  0  0  0  0
692693  1  0  0  0  0
692703  1  0  0  0  0
693694  1  0  0  0  0
693696  1  0  0  0  0
693704  1  0  0  0  0
694695  2  0  0  0  0
696697  1  0  0  0  0
696705  1  0  0  0  0
696706  1  0  0  0  0
697698  2  0  0  0  0
697699  1  0  0  0  0
698700  1  0  0  0  0
698707  1  0  0  0  0
699701  2  0  0  0  0
699708  1  0  0  0  0
700702  2  0  0  0  0
700709  1  0  0  0  0
701702  1  0  0  0  0
701710  1  0  0  0  0
702711  1  0  0  0  0
712713  1  0  0  0  0
712723  1  0  0  0  0
713714  1  0  0  0  0
713716  1  0  0  0  0
713724  1  0  0  0  0
714715  2  0  0  0  0
714736  1  0  0  0  0
716717  1  0  0  0  0
716725  1  0  0  0  0
716726  1  0  0  0  0
717718  1  0  0  0  0
717727  1  0  0  0  0
717728  1  0  0  0  0
718719  1  0  0  0  0
718729  1  0  0  0  0
718730  1  0  0  0  0
719720  1  0  0  0  0
719731  1  0  0  0  0
720721  2  0  0  0  0
720722  1  0  0  0  0
721732  1  0  0  0  0
721733  1  0  0  0  0
722734  1  0  0  0  0
722735  1  0  0  0  0
736737  1  0  0  0  0
736747  1  0  0  0  0
737738  1  0  0  0  0
737740  1  0  0  0  0
737748  1  0  0  0  0
738739  2  0  0  0  0
740741  1  0  0  0  0
740749  1  0  0  0  0
740750  1  0  0  0  0
741742  1  0  0  0  0
741751  1  0  0  0  0
741752  1  0  0  0  0
742743  1  0  0  0  0
742753  1  0  0  0  0
742754  1  0  0  0  0
743744  1  0  0  0  0
743755  1  0  0  0  0
744745  2  0  0  0  0
744746  1  0  0  0  0
745756  1  0  0  0  0
745757  1  0  0  0  0
746758  1  0  0  0  0
746759  1  0  0  0  0
760761  1  0  0  0  0
760769  1  0  0  0  0
761762  1  0  0  0  0
761764  1  0  0  0  0
761770  1  0  0  0  0
762763  2  0  0  0  0
762777  1  0  0  0  0
764765  1  0  0  0  0
764771  1  0  0  0  0
764772  1  0  0  0  0
765766  1  0  0  0  0
765773  1  0  0  0  0
765774  1  0  0  0  0
766767  1  0  0  0  0
766768  2  0  0  0  0
767775  1  0  0  0  0
767776  1  0  0  0  0
777778  1  0  0  0  0
777781  1  0  0  0  0
778779  1  0  0  0  0
778782  1  0  0  0  0
778783  1  0  0  0  0
779780  2  0  0  0  0
779784  1  0  0  0  0
784785  1  0  0  0  0
784790  1  0  0  0  0
785786  1  0  0  0  0
785788  1  0  0  0  0
785791  1  0  0  0  0
786787  2  0  0  0  0
786795  1  0  0  0  0
788789  1  0  0  0  0
788792  1  0  0  0  0
788793  1  0  0  0  0
789794  1  0  0  0  0
795796  1  0  0  0  0
795804  1  0  0  0  0
796797  1  0  0  0  0
796799  1  0  0  0  0
796805  1  0  0  0  0
797798  2  0  0  0  0
799800  1  0  0  0  0
799806  1  0  0  0  0
799807  1  0  0  0  0
800801  1  0  0  0  0
800808  1  0  0  0  0
800809  1  0  0  0  0
801802  2  0  0  0  0
801803  1  0  0  0  0
M  END
$$$$
